
*** ChampSim Multicore Out-of-Order Simulator ***

Warmup Instructions: 10000
Simulation Instructions: 20
Number of CPUs: 1
Off-chip DRAM Size: 4 GiB Channels: 1 Width: 64-bit Data Rate: 3200 MT/s

VirtualMemory physical capacity: 8588881920 num_ppages: 2096895
VirtualMemory page size: 4096 log2_page_size: 12

CPU 0 runs ./traces/400.perlbench-41B.champsimtrace.xz
CPU 0 Bimodal branch predictor
Basic BTB sets: 1024 ways: 8 indirect buffer size: 4096 RAS size: 64
!,addr,6705970816,page_id,1637199,block_id,58,cache_hit,0
!,addr,6705970880,page_id,1637199,block_id,59,cache_hit,0
!,addr,6705968896,page_id,1637199,block_id,28,cache_hit,0
!,addr,6705968512,page_id,1637199,block_id,22,cache_hit,0
!,addr,6705968576,page_id,1637199,block_id,23,cache_hit,0
!,addr,6705968640,page_id,1637199,block_id,24,cache_hit,0
!,addr,1684653952,page_id,411292,block_id,30,cache_hit,0
!,addr,1684654016,page_id,411292,block_id,31,cache_hit,0
!,addr,5840117248,page_id,1425809,block_id,56,cache_hit,0
!,addr,6705968960,page_id,1637199,block_id,29,cache_hit,0
!,addr,6705970688,page_id,1637199,block_id,56,cache_hit,0
!,addr,6705970752,page_id,1637199,block_id,57,cache_hit,0
!,addr,7625491136,page_id,1861692,block_id,11,cache_hit,0
!,addr,5210694400,page_id,1272142,block_id,12,cache_hit,0
!,addr,5210694464,page_id,1272142,block_id,13,cache_hit,0
!,addr,7468723584,page_id,1823418,block_id,54,cache_hit,0
!,addr,4643160128,page_id,1133584,block_id,1,cache_hit,0
!,addr,5471505920,page_id,1335816,block_id,56,cache_hit,0
!,addr,5471505664,page_id,1335816,block_id,52,cache_hit,0
!,addr,4643160832,page_id,1133584,block_id,12,cache_hit,0
!,addr,7625490624,page_id,1861692,block_id,3,cache_hit,0
!,addr,7625491200,page_id,1861692,block_id,12,cache_hit,0
!,addr,1684654848,page_id,411292,block_id,44,cache_hit,0
!,addr,1684654912,page_id,411292,block_id,45,cache_hit,0
!,addr,8304763968,page_id,2027530,block_id,17,cache_hit,0
!,addr,8304764032,page_id,2027530,block_id,18,cache_hit,0
!,addr,6705970560,page_id,1637199,block_id,54,cache_hit,0
!,addr,6705968448,page_id,1637199,block_id,21,cache_hit,0
!,addr,7625491264,page_id,1861692,block_id,13,cache_hit,0
!,addr,1684654208,page_id,411292,block_id,34,cache_hit,0
!,addr,1684654272,page_id,411292,block_id,35,cache_hit,0
!,addr,1684654336,page_id,411292,block_id,36,cache_hit,0
!,addr,5960265152,page_id,1455142,block_id,55,cache_hit,0
!,addr,5960265216,page_id,1455142,block_id,56,cache_hit,0
!,addr,5960265280,page_id,1455142,block_id,57,cache_hit,0
!,addr,7468723712,page_id,1823418,block_id,56,cache_hit,0
!,addr,5471505216,page_id,1335816,block_id,45,cache_hit,0
!,addr,5471505024,page_id,1335816,block_id,42,cache_hit,0
!,addr,7625491328,page_id,1861692,block_id,14,cache_hit,0
!,addr,6743856704,page_id,1646449,block_id,25,cache_hit,0
!,addr,4643161920,page_id,1133584,block_id,29,cache_hit,0
!,addr,5840115200,page_id,1425809,block_id,24,cache_hit,0
!,addr,6705970624,page_id,1637199,block_id,55,cache_hit,0
!,addr,7625491392,page_id,1861692,block_id,15,cache_hit,0
!,addr,5960262016,page_id,1455142,block_id,6,cache_hit,0
!,addr,5464591616,page_id,1334128,block_id,52,cache_hit,0
!,addr,5464591680,page_id,1334128,block_id,53,cache_hit,0
!,addr,5464591744,page_id,1334128,block_id,54,cache_hit,0
!,addr,3494813952,page_id,853226,block_id,4,cache_hit,0
!,addr,7625491456,page_id,1861692,block_id,16,cache_hit,0
!,addr,5840115072,page_id,1425809,block_id,22,cache_hit,0
!,addr,5840115008,page_id,1425809,block_id,21,cache_hit,0
!,addr,7625491584,page_id,1861692,block_id,18,cache_hit,0
!,addr,7625491648,page_id,1861692,block_id,19,cache_hit,0
!,addr,1209112256,page_id,295193,block_id,27,cache_hit,0
!,addr,1209112320,page_id,295193,block_id,28,cache_hit,0
!,addr,1209112448,page_id,295193,block_id,30,cache_hit,0
!,addr,1209112512,page_id,295193,block_id,31,cache_hit,0
!,addr,1209112384,page_id,295193,block_id,29,cache_hit,0
!,addr,7625490688,page_id,1861692,block_id,4,cache_hit,0
!,addr,7625490752,page_id,1861692,block_id,5,cache_hit,0
!,addr,7625490816,page_id,1861692,block_id,6,cache_hit,0
!,addr,7625490880,page_id,1861692,block_id,7,cache_hit,0
!,addr,7625490944,page_id,1861692,block_id,8,cache_hit,0
!,addr,5840115648,page_id,1425809,block_id,31,cache_hit,0
!,addr,7468723392,page_id,1823418,block_id,51,cache_hit,0
!,addr,5840115712,page_id,1425809,block_id,32,cache_hit,0
!,addr,5840115776,page_id,1425809,block_id,33,cache_hit,0
!,addr,5840115840,page_id,1425809,block_id,34,cache_hit,0
!,addr,5840115904,page_id,1425809,block_id,35,cache_hit,0
!,addr,6705968832,page_id,1637199,block_id,27,cache_hit,0
!,addr,7625491008,page_id,1861692,block_id,9,cache_hit,0
!,addr,7625491072,page_id,1861692,block_id,10,cache_hit,0

Warmup complete CPU 0 instructions: 10001 cycles: 2570 (Simulation time: 0 hr 0 min 0 sec) 

Finished CPU 0 instructions: 20 cycles: 5 cumulative IPC: 4 (Simulation time: 0 hr 0 min 0 sec) 

ChampSim completed all CPUs

Region of Interest Statistics

CPU 0 cumulative IPC: 4 instructions: 20 cycles: 5
cpu0_DTLB TOTAL     ACCESS:          3  HIT:          3  MISS:          0
cpu0_DTLB LOAD      ACCESS:          2  HIT:          2  MISS:          0
cpu0_DTLB RFO       ACCESS:          1  HIT:          1  MISS:          0
cpu0_DTLB PREFETCH  ACCESS:          0  HIT:          0  MISS:          0
cpu0_DTLB WRITEBACK ACCESS:          0  HIT:          0  MISS:          0
cpu0_DTLB TRANSLATION ACCESS:          0  HIT:          0  MISS:          0
cpu0_DTLB PREFETCH  REQUESTED:          0  ISSUED:          0  USEFUL:          0  USELESS:          0
cpu0_DTLB AVERAGE MISS LATENCY: nan cycles
cpu0_ITLB TOTAL     ACCESS:          2  HIT:          2  MISS:          0
cpu0_ITLB LOAD      ACCESS:          2  HIT:          2  MISS:          0
cpu0_ITLB RFO       ACCESS:          0  HIT:          0  MISS:          0
cpu0_ITLB PREFETCH  ACCESS:          0  HIT:          0  MISS:          0
cpu0_ITLB WRITEBACK ACCESS:          0  HIT:          0  MISS:          0
cpu0_ITLB TRANSLATION ACCESS:          0  HIT:          0  MISS:          0
cpu0_ITLB PREFETCH  REQUESTED:          0  ISSUED:          0  USEFUL:          0  USELESS:          0
cpu0_ITLB AVERAGE MISS LATENCY: nan cycles
cpu0_L1I TOTAL     ACCESS:          3  HIT:          3  MISS:          0
cpu0_L1I LOAD      ACCESS:          3  HIT:          3  MISS:          0
cpu0_L1I RFO       ACCESS:          0  HIT:          0  MISS:          0
cpu0_L1I PREFETCH  ACCESS:          0  HIT:          0  MISS:          0
cpu0_L1I WRITEBACK ACCESS:          0  HIT:          0  MISS:          0
cpu0_L1I TRANSLATION ACCESS:          0  HIT:          0  MISS:          0
cpu0_L1I PREFETCH  REQUESTED:          0  ISSUED:          0  USEFUL:          0  USELESS:          0
cpu0_L1I AVERAGE MISS LATENCY: nan cycles
cpu0_L1D TOTAL     ACCESS:          1  HIT:          1  MISS:          0
cpu0_L1D LOAD      ACCESS:          1  HIT:          1  MISS:          0
cpu0_L1D RFO       ACCESS:          0  HIT:          0  MISS:          0
cpu0_L1D PREFETCH  ACCESS:          0  HIT:          0  MISS:          0
cpu0_L1D WRITEBACK ACCESS:          0  HIT:          0  MISS:          0
cpu0_L1D TRANSLATION ACCESS:          0  HIT:          0  MISS:          0
cpu0_L1D PREFETCH  REQUESTED:          0  ISSUED:          0  USEFUL:          0  USELESS:          0
cpu0_L1D AVERAGE MISS LATENCY: nan cycles

DRAM Statistics
 CHANNEL 0
 RQ ROW_BUFFER_HIT:          0  ROW_BUFFER_MISS:          0
 DBUS AVG_CONGESTED_CYCLE: -
 WQ ROW_BUFFER_HIT:          0  ROW_BUFFER_MISS:          0  FULL:          0


CPU 0 Branch Prediction Accuracy: 100% MPKI: 0 Average ROB Occupancy at Mispredict: nan
Branch type MPKI
BRANCH_DIRECT_JUMP: 0
BRANCH_INDIRECT: 0
BRANCH_CONDITIONAL: 0
BRANCH_DIRECT_CALL: 0
BRANCH_INDIRECT_CALL: 0
BRANCH_RETURN: 0

