
*** ChampSim Multicore Out-of-Order Simulator ***

Warmup Instructions: 10000
Simulation Instructions: 2000000
Number of CPUs: 1
Off-chip DRAM Size: 4 GiB Channels: 1 Width: 64-bit Data Rate: 3200 MT/s

VirtualMemory physical capacity: 8588881920 num_ppages: 2096895
VirtualMemory page size: 4096 log2_page_size: 12

CPU 0 runs ./traces/400.perlbench-41B.champsimtrace.xz
CPU 0 Bimodal branch predictor
Basic BTB sets: 1024 ways: 8 indirect buffer size: 4096 RAS size: 64
++5210694464++--5210694528--
WARNING: The extended signature CACHE::prefetch_line(ip, base_addr, pf_addr, fill_this_level, prefetch_metadata) is deprecated.
WARNING: Use CACHE::prefetch_line(pf_addr, fill_this_level, prefetch_metadata) instead.
++7468723584++--7468723648--
++4643160128++--4643160192--
++5471505920++--5471505984--
++5471505664++--5471505728--
++4643160832++--4643160896--
++7625490624++--7625490688--
++7625491200++--7625491264--
++1684654848++--1684654912--
++1684654912++--1684654976--
++8304763968++--8304764032--
++8304764032++--8304764096--
++6705970560++--6705970624--
++6705968448++--6705968512--
++7625491264++--7625491328--
++1684654208++--1684654272--
++1684654272++--1684654336--
++1684654336++--1684654400--
++5960265152++--5960265216--
++5960265216++--5960265280--
++5960265280++--5960265344--
++7468723712++--7468723776--
++5471505216++--5471505280--
++5471505024++--5471505088--
++7625491328++--7625491392--
++6743856704++--6743856768--
++4643161920++--4643161984--
++5840115200++--5840115264--
++6705970624++--6705970688--
++7625491392++--7625491456--
++5960262016++--5960262080--
++5464591616++--5464591680--
++5464591680++--5464591744--
++5464591744++--5464591808--
++3494813952++--3494814016--
++7625491456++--7625491520--
++5840115072++--5840115136--
++5840115008++--5840115072--
++7625491584++--7625491648--
++7625491648++--7625491712--
++1209112256++--1209112320--
++1209112320++--1209112384--
++1209112448++--1209112512--
++1209112512++--1209112576--
++1209112384++--1209112448--
++7625490688++--7625490752--
++7625490752++--7625490816--
++7625490816++--7625490880--
++7625490880++--7625490944--
++7625490944++--7625491008--
++5840115648++--5840115712--
++7468723392++--7468723456--
++5840115712++--5840115776--
++5840115776++--5840115840--
++5840115840++--5840115904--
++5840115904++--5840115968--
++6705968832++--6705968896--
++7625491008++--7625491072--
++7625491072++--7625491136--

Warmup complete CPU 0 instructions: 10001 cycles: 2570 (Simulation time: 0 hr 0 min 0 sec) 

++5840117312++--5840117376--
++4643161280++--4643161344--
++6743856640++--6743856704--
++1209112704++--1209112768--
++1209112768++--1209112832--
++1209112896++--1209112960--
++1209112960++--1209113024--
++1209112832++--1209112896--
++1209113152++--1209113216--
++1209113216++--1209113280--
++2771027328++--2771027392--
++1209113280++--1209113344--
++5464590528++--5464590592--
++5225913984++--5225914048--
++5225914048++--5225914112--
++4643160576++--4643160640--
++5225913536++--5225913600--
++5225913600++--5225913664--
++5471505472++--5471505536--
++5225913664++--5225913728--
++5225913728++--5225913792--
++1209113408++--1209113472--
++1209113472++--1209113536--
++6184286848++--6184286912--
++6184286912++--6184286976--
++1209113536++--1209113600--
++6184286144++--6184286208--
++1209113600++--1209113664--
++6184286208++--6184286272--
++6184286272++--6184286336--
++1209113664++--1209113728--
++5471505984++--5471506048--
++5464591360++--5464591424--
++7945018816++--7945018880--
++4241472064++--4241472128--
++1544012672++--1544012736--
++4364545280++--4364545344--
++4364545344++--4364545408--
++4643160256++--4643160320--
++4364545408++--4364545472--
++3425117440++--3425117504--
++4364545472++--4364545536--
++1544012608++--1544012672--
++1544013248++--1544013312--
++859287680++--859287744--
++859287744++--859287808--
++5471506368++--5471506432--
++8336389376++--8336389440--
++6825596160++--6825596224--
++4615095936++--4615096000--
++1925402368++--1925402432--
++859287808++--859287872--
++4643162112++--4643162176--
++1544013184++--1544013248--
++6617460800++--6617460864--
++6617460864++--6617460928--
++4643161344++--4643161408--
++1925402496++--1925402560--
++1925402432++--1925402496--
++6617461056++--6617461120--
++6617461248++--6617461312--
++6586913856++--6586913920--
++6617461312++--6617461376--
++4643160064++--4643160128--
++1809663488++--1809663552--
++1809663552++--1809663616--
++6617461696++--6617461760--
++2127173632++--2127173696--
++2127173696++--2127173760--
++2127173760++--2127173824--
++2127173824++--2127173888--
++6617461376++--6617461440--
++6617461440++--6617461504--
++7155700288++--7155700352--
++6112216640++--6112216704--
++3298688256++--3298688320--
++4418921152++--4418921216--
++6458411264++--6458411328--
++3298688448++--3298688512--
++3298688512++--3298688576--
++6617461120++--6617461184--
++6617461184++--6617461248--
++1544013056++--1544013120--
++3425117504++--3425117568--
++6601487616++--6601487680--
++1544013120++--1544013184--
++1544012800++--1544012864--
++1244806400++--1244806464--
++1244806464++--1244806528--
++1244806528++--1244806592--
++1544012736++--1544012800--
++6184285824++--6184285888--
++6184285888++--6184285952--
++6184285952++--6184286016--
++7945018880++--7945018944--
++4643160448++--4643160512--
++6184286016++--6184286080--
++668698048++--668698112--
++7155700224++--7155700288--
++6256169600++--6256169664--
++6184286080++--6184286144--
++7625490560++--7625490624--
++6184286464++--6184286528--
++6184286528++--6184286592--
++4620656640++--4620656704--
++6184287488++--6184287552--
++6184287808++--6184287872--
++6184287872++--6184287936--
++5471505344++--5471505408--
++6184286592++--6184286656--
++6184286656++--6184286720--
++6184287744++--6184287808--
++6184286720++--6184286784--
++6184286784++--6184286848--
++6184287936++--6184288000--
++8336389440++--8336389504--
++5155490304++--5155490368--
++5155490368++--5155490432--
++5155490496++--5155490560--
++5155490432++--5155490496--
++5155490560++--5155490624--
++5225910336++--5225910400--
++5225910400++--5225910464--
++1544011776++--1544011840--
++5155490624++--5155490688--
++5225910528++--5225910592--
++5225910592++--5225910656--
++5225911744++--5225911808--
++6586913984++--6586914048--
++5225912384++--5225912448--
++5225911872++--5225911936--
++5225911936++--5225912000--
++5225911296++--5225911360--
++1340243520++--1340243584--
++1544012096++--1544012160--
++5225913344++--5225913408--
++5225913408++--5225913472--
++668698176++--668698240--
++5225913472++--5225913536--
++7155700928++--7155700992--
++7155700992++--7155701056--
++5225913792++--5225913856--
++5225913856++--5225913920--
++5225913920++--5225913984--
++2771027072++--2771027136--
++2771027136++--2771027200--
++7625490496++--7625490560--
++2771027200++--2771027264--
++2771027264++--2771027328--
++7468723328++--7468723392--
++1684652096++--1684652160--
++6705969152++--6705969216--
++7468723648++--7468723712--
++1684653888++--1684653952--
++1684653376++--1684653440--
++7468722688++--7468722752--
++5840114624++--5840114688--
++5840114688++--5840114752--
++1684653504++--1684653568--
++5840114752++--5840114816--
++3435778816++--3435778880--
++3435778880++--3435778944--
++7468723264++--7468723328--
++3435780416++--3435780480--
++3435779008++--3435779072--
++5840114816++--5840114880--
++5840114880++--5840114944--
++5840115136++--5840115200--
++7468722624++--7468722688--
++1684653440++--1684653504--
++7468723136++--7468723200--
++3435779072++--3435779136--
++3435781120++--3435781184--
++3435781184++--3435781248--
++1224337408++--1224337472--
++1224337472++--1224337536--
++1224337920++--1224337984--
++1224337984++--1224338048--
++1224338368++--1224338432--
++1224337792++--1224337856--
++6743856768++--6743856832--
++1224338496++--1224338560--
++3435778112++--3435778176--
++3435778944++--3435779008--
++4821018048++--4821018112--
++1925724736++--1925724800--
++2830292992++--2830293056--
++3870912960++--3870913024--
++8171130432++--8171130496--
++2830293056++--2830293120--
++2169070912++--2169070976--
++232771008++--232771072--
++232770944++--232771008--
++2830293120++--2830293184--
++4259834496++--4259834560--
++7991603968++--7991604032--
++6438587200++--6438587264--
++6265311168++--6265311232--
++557468864++--557468928--
++6438587264++--6438587328--
++4418922048++--4418922112--
++4182340352++--4182340416--
++6438587328++--6438587392--
++6112216704++--6112216768--
++675137344++--675137408--
++650751488++--650751552--
++3844602624++--3844602688--
++6327169152++--6327169216--
++716401600++--716401664--
++3844602688++--3844602752--
++2169071680++--2169071744--
++1925724608++--1925724672--
++3972198912++--3972198976--
++140060608++--140060672--
++1123184320++--1123184384--
++3972198976++--3972199040--
++6436483776++--6436483840--
++8395482496++--8395482560--
++6054493760++--6054493824--
++6054493824++--6054493888--
++5563506752++--5563506816--
++6967379072++--6967379136--
++6054493888++--6054493952--
++577248384++--577248448--
++1914806464++--1914806528--
++6054493952++--6054494016--
++6323590336++--6323590400--
++8372953920++--8372953984--
++1563040896++--1563040960--
++6112216768++--6112216832--
++7802193472++--7802193536--
++8395481344++--8395481408--
++1563040960++--1563041024--
++7137306560++--7137306624--
++3935284672++--3935284736--
++1563041024++--1563041088--
++1258028800++--1258028864--
++3613345472++--3613345536--
++8539677696++--8539677760--
++1578245568++--1578245632--
++5038025024++--5038025088--
++3367245248++--3367245312--
++5225910464++--5225910528--
++1340243584++--1340243648--
++6436483840++--6436483904--
++6488306304++--6488306368--
++6488306240++--6488306304--
++8539677760++--8539677824--
++1544013376++--1544013440--
++3910029504++--3910029568--
++3910029568++--3910029632--
++3910029632++--3910029696--
++3910029696++--3910029760--
++3910029888++--3910029952--
++4933668928++--4933668992--
++4933668992++--4933669056--
++5471505408++--5471505472--
++6591540096++--6591540160--
++7464903680++--7464903744--
++6591540160++--6591540224--
++6591540224++--6591540288--
++6591541056++--6591541120--
++3494817280++--3494817344--
++1129918464++--1129918528--
++1129920320++--1129920384--
++1726994048++--1726994112--
++1726994112++--1726994176--
++1726994176++--1726994240--
++1726994368++--1726994432--
++3494814784++--3494814848--
++1726994240++--1726994304--
++3494814720++--3494814784--
++1726994752++--1726994816--
++1726994816++--1726994880--
++1726994304++--1726994368--
++6591540288++--6591540352--
++1129918528++--1129918592--
++7377581504++--7377581568--
++1129920128++--1129920192--
++1726993216++--1726993280--
++1726993280++--1726993344--
++1726993408++--1726993472--
++5985091712++--5985091776--
++7200127168++--7200127232--
++7200127232++--7200127296--
++4241470528++--4241470592--
++7200127296++--7200127360--
++8156129344++--8156129408--
++4797770112++--4797770176--
++5312106304++--5312106368--
++2671749632++--2671749696--
++2671749696++--2671749760--
++2671749760++--2671749824--
++2671749824++--2671749888--
++7200127360++--7200127424--
++7314638848++--7314638912--
++5344278400++--5344278464--
++5344278464++--5344278528--
++5985091776++--5985091840--
++1726993344++--1726993408--
++1062403712++--1062403776--
++1062403840++--1062403904--
++1129918592++--1129918656--
++1129918656++--1129918720--
++1129919808++--1129919872--
++1129919872++--1129919936--
++1129918720++--1129918784--
++1129919744++--1129919808--
++6591540992++--6591541056--
++4933669056++--4933669120--
++5471506048++--5471506112--
++4933669120++--4933669184--
++3910029952++--3910030016--
++3910029760++--3910029824--
++1726992960++--1726993024--
++1726993024++--1726993088--
++3910029824++--3910029888--
++5960264192++--5960264256--
++5960264256++--5960264320--
++5464592000++--5464592064--
++577247360++--577247424--
++3298685952++--3298686016--
++3298686016++--3298686080--
++3298686592++--3298686656--
++3298686656++--3298686720--
++3494814848++--3494814912--
++6436484352++--6436484416--
++3494813760++--3494813824--
++5464591808++--5464591872--
++5210694336++--5210694400--
++1544013312++--1544013376--
++1544013824++--1544013888--
++4364544000++--4364544064--
++4364544064++--4364544128--
++4364544128++--4364544192--
++1925402240++--1925402304--
++4364544192++--4364544256--
++4364544384++--4364544448--
++4364544256++--4364544320--
++3494813888++--3494813952--
++5960262272++--5960262336--
++5960262336++--5960262400--
++5471505280++--5471505344--
++7625490432++--7625490496--
++6586914240++--6586914304--
++5960263680++--5960263744--
++5960263744++--5960263808--
++5960264128++--5960264192--
++1726993536++--1726993600--
++1726993600++--1726993664--
++1726993664++--1726993728--
++1726993792++--1726993856--
++1726993856++--1726993920--
++3298688576++--3298688640--
++2781171328++--2781171392--
++6113563648++--6113563712--
++3298688640++--3298688704--
++5960263808++--5960263872--
++3494814016++--3494814080--
++5464591872++--5464591936--
++5464591936++--5464592000--
++5960262464++--5960262528--
++1006526080++--1006526144--
++6586914304++--6586914368--
++5125411648++--5125411712--
++5210694272++--5210694336--
++4364544320++--4364544384--
++1925402304++--1925402368--
++4364544512++--4364544576--
++4364544576++--4364544640--
++7155700352++--7155700416--
++5464591424++--5464591488--
++2572689856++--2572689920--
++3995841728++--3995841792--
++1925402048++--1925402112--
++5464591488++--5464591552--
++5464591552++--5464591616--
++3298686720++--3298686784--
++3494815040++--3494815104--
++3298686976++--3298687040--
++3298687360++--3298687424--
++3298687552++--3298687616--
++1382354048++--1382354112--
++3245662528++--3245662592--
++5312106240++--5312106304--
++3245662592++--3245662656--
++3245662656++--3245662720--
++2671747136++--2671747200--
++2671747200++--2671747264--
++2671747968++--2671748032--
++2671748032++--2671748096--
++7314638720++--7314638784--
++3245662720++--3245662784--
++3298687616++--3298687680--
++3298687424++--3298687488--
++3494814912++--3494814976--
++3298687872++--3298687936--
++7691595648++--7691595712--
++4607793792++--4607793856--
++4607793856++--4607793920--
++4607793920++--4607793984--
++4607793984++--4607794048--
++1292339712++--1292339776--
++2983618432++--2983618496--
++2983618496++--2983618560--
++7691595712++--7691595776--
++4620660160++--4620660224--
++4620660224++--4620660288--
++4620660288++--4620660352--
++4620660672++--4620660736--
++2781171264++--2781171328--
++7356350720++--7356350784--
++7356350528++--7356350592--
++7356350592++--7356350656--
++7691595584++--7691595648--
++2983616768++--2983616832--
++2983616832++--2983616896--
++3995840512++--3995840576--
++6617462208++--6617462272--
++6617462272++--6617462336--
++6617462336++--6617462400--
++1006525696++--1006525760--
++6617462656++--6617462720--
++6617462528++--6617462592--
++4505547520++--4505547584--
++1476912000++--1476912064--
++3753293888++--3753293952--
++3753293952++--3753294016--
++3753294016++--3753294080--
++4505547456++--4505547520--
++3753294080++--3753294144--
++4652295936++--4652296000--
++3753294720++--3753294784--
++3753294784++--3753294848--
++3753294208++--3753294272--
++3753294272++--3753294336--
++5387291456++--5387291520--
++1629900736++--1629900800--
++3599696064++--3599696128--
++5950843072++--5950843136--
++5950843008++--5950843072--
++6893309824++--6893309888--
++7746479808++--7746479872--
++7746479744++--7746479808--
++387634880++--387634944--
++4861209088++--4861209152--
++4069077824++--4069077888--
++3753294336++--3753294400--
++3753294400++--3753294464--
++3753294464++--3753294528--
++6617462592++--6617462656--
++6113563776++--6113563840--
++6617462464++--6617462528--
++6617462400++--6617462464--
++3995840640++--3995840704--
++4159650496++--4159650560--
++6910984832++--6910984896--
++3995840576++--3995840640--
++3995840704++--3995840768--
++1006525632++--1006525696--
++4842499584++--4842499648--
++1187832640++--1187832704--
++4914914496++--4914914560--
++8360202304++--8360202368--
++4914914432++--4914914496--
++4914914176++--4914914240--
++4914913344++--4914913408--
++168161920++--168161984--
++4621107904++--4621107968--
++6910984640++--6910984704--
++3995840832++--3995840896--
++3752517760++--3752517824--
++3995840768++--3995840832--
++3995840896++--3995840960--
++4505547584++--4505547648--
++4842500032++--4842500096--
++4910847680++--4910847744--
++2022497344++--2022497408--
++2811523520++--2811523584--
++1476911424++--1476911488--
++1476911488++--1476911552--
++7256115264++--7256115328--
++3995841600++--3995841664--
++6396188416++--6396188480--
++3995841664++--3995841728--
++3995841344++--3995841408--
++6617463360++--6617463424--
++6617463424++--6617463488--
++5471506112++--5471506176--
++3995841088++--3995841152--
++3995841152++--3995841216--
++2983616640++--2983616704--
++2983616704++--2983616768--
++3995841216++--3995841280--
++7356351424++--7356351488--
++7356351616++--7356351680--
++7356352640++--7356352704--
++7356352704++--7356352768--
++7356351808++--7356351872--
++7356351872++--7356351936--
++805880128++--805880192--
++5125411712++--5125411776--
++7356352448++--7356352512--
++1590642304++--1590642368--
++1590642432++--1590642496--
++1590642496++--1590642560--
++1590642560++--1590642624--
++1590642624++--1590642688--
++513350208++--513350272--
++513350272++--513350336--
++513350336++--513350400--
++513350400++--513350464--
++1590642368++--1590642432--
++7356352512++--7356352576--
++7356352000++--7356352064--
++3995840960++--3995841024--
++3995841408++--3995841472--
++1244803456++--1244803520--
++1244803520++--1244803584--
++1244803776++--1244803840--
++6586913600++--6586913664--
++989001088++--989001152--
++989001216++--989001280--
++1244804480++--1244804544--
++1244803904++--1244803968--
++303825472++--303825536--
++5471506304++--5471506368--
++3777436480++--3777436544--
++3777436544++--3777436608--
++1244803968++--1244804032--
++520925376++--520925440--
++1244804032++--1244804096--
++1244804672++--1244804736--
++1244804736++--1244804800--
++303825536++--303825600--
++303825600++--303825664--
++5471504640++--5471504704--
++1244804800++--1244804864--
++1244804864++--1244804928--
++1244804928++--1244804992--
++3777434240++--3777434304--
++3777434304++--3777434368--
++1244804992++--1244805056--
++1244805056++--1244805120--
++1244805120++--1244805184--
++1244805184++--1244805248--
++1809663616++--1809663680--
++1244805248++--1244805312--
++1544014080++--1544014144--
++6586913792++--6586913856--
++1809663744++--1809663808--
++4958391040++--4958391104--
++6586913536++--6586913600--
++1809664000++--1809664064--
++1809663936++--1809664000--
++1244805312++--1244805376--
++1244805376++--1244805440--
++140060672++--140060736--
++1244805440++--1244805504--
++1244803712++--1244803776--
++1544014528++--1544014592--
++1544014272++--1544014336--
++1544014336++--1544014400--
++7356352768++--7356352832--
++1544014400++--1544014464--
++3697869184++--3697869248--
++3697869248++--3697869312--
++961259584++--961259648--
++961259648++--961259712--
++961259712++--961259776--
++3697869312++--3697869376--
++1544014144++--1544014208--
++3777433920++--3777433984--
++3777433984++--3777434048--
++4607794048++--4607794112--
++1544014464++--1544014528--
++2968043520++--2968043584--
++2968043584++--2968043648--
++2968043648++--2968043712--
++1129919040++--1129919104--
++1129919104++--1129919168--
++6591540352++--6591540416--
++6591540416++--6591540480--
++6591540480++--6591540544--
++6591540544++--6591540608--
++2968043712++--2968043776--
++989000832++--989000896--
++1544014016++--1544014080--
++1544014720++--1544014784--
++1544014784++--1544014848--
++989000320++--989000384--
++989000256++--989000320--
++989000512++--989000576--
++7953618688++--7953618752--
++7953618752++--7953618816--
++989000576++--989000640--
++7953618816++--7953618880--
++7953619456++--7953619520--
++7953619520++--7953619584--
++3777437632++--3777437696--
++303824896++--303824960--
++303824960++--303825024--
++7020565120++--7020565184--
++7020565184++--7020565248--
++7020565248++--7020565312--
++7953618880++--7953618944--
++7953618944++--7953619008--
++7953619008++--7953619072--
++7953619072++--7953619136--
++7953619136++--7953619200--
++7953619200++--7953619264--
++989000896++--989000960--
++7953619648++--7953619712--
++989000640++--989000704--
++989000448++--989000512--
++989000128++--989000192--
++4958390784++--4958390848--
++4958390848++--4958390912--
++4958391168++--4958391232--
++4958391104++--4958391168--
++8372953344++--8372953408--
++7942346880++--7942346944--
++5155490688++--5155490752--
++5155490752++--5155490816--
++5155490816++--5155490880--
++5225910656++--5225910720--
++5155490880++--5155490944--
++5155491456++--5155491520--
++5155491520++--5155491584--
++1382352192++--1382352256--
++1382352256++--1382352320--
++1382352320++--1382352384--
++1382352512++--1382352576--
++1382352576++--1382352640--
++1382352704++--1382352768--
++1382352768++--1382352832--
++4958391744++--4958391808--
++6743856576++--6743856640--
++1382352960++--1382353024--
++1382353024++--1382353088--
++4958391616++--4958391680--
++4958391680++--4958391744--
++1382352448++--1382352512--
++5155491136++--5155491200--
++1340243648++--1340243712--
++989000000++--989000064--
++989000704++--989000768--
++950971328++--950971392--
++3972199040++--3972199104--
++1563041088++--1563041152--
++8539677824++--8539677888--
++989000384++--989000448--
++989000768++--989000832--
++989001280++--989001344--
++3995843328++--3995843392--
++3995843264++--3995843328--
++3995841920++--3995841984--
++3995841984++--3995842048--
++3995841856++--3995841920--
++3995842048++--3995842112--
++1006525568++--1006525632--
++3995842176++--3995842240--
++3995842112++--3995842176--
++3995842240++--3995842304--
++1006525504++--1006525568--
++4505547648++--4505547712--
++3995842368++--3995842432--
++3995842432++--3995842496--
++3995842304++--3995842368--
++3995842496++--3995842560--
++4614700224++--4614700288--
++3083203520++--3083203584--
++4703425472++--4703425536--
++4703425536++--4703425600--
++7256114112++--7256114176--
++3995843200++--3995843264--
++6396188672++--6396188736--
++3995842880++--3995842944--
++3995842624++--3995842688--
++3995842688++--3995842752--
++3995842752++--3995842816--
++3995842560++--3995842624--
++3995842944++--3995843008--
++6586913344++--6586913408--
++4236825472++--4236825536--
++4236825600++--4236825664--
++520925504++--520925568--
++520925568++--520925632--
++989001472++--989001536--
++6586913472++--6586913536--
++1809664128++--1809664192--
++989002944++--989003008--
++6586913280++--6586913344--
++1809664320++--1809664384--
++1809664256++--1809664320--
++989001920++--989001984--
++989001664++--989001728--
++989001728++--989001792--
++989001792++--989001856--
++989001536++--989001600--
++989001856++--989001920--
++5450609344++--5450609408--
++989001408++--989001472--
++989002112++--989002176--
++989002048++--989002112--
++989002176++--989002240--
++5450608832++--5450608896--
++5450608768++--5450608832--
++5450609024++--5450609088--
++5450609088++--5450609152--
++5450609408++--5450609472--
++5450609152++--5450609216--
++5450608960++--5450609024--
++5450608640++--5450608704--
++989002688++--989002752--
++989002752++--989002816--
++989002816++--989002880--
++989003072++--989003136--
++989003136++--989003200--
++5225914304++--5225914368--
++5464588288++--5464588352--
++989003008++--989003072--
++989003200++--989003264--
++5464590272++--5464590336--
++5464589504++--5464589568--
++989003264++--989003328--
++5464588480++--5464588544--
++5464588544++--5464588608--
++2771027904++--2771027968--
++2771027968++--2771028032--
++2771028032++--2771028096--
++7468723968++--7468724032--
++270079936++--270080000--
++270079488++--270079552--
++270079552++--270079616--
++2008611136++--2008611200--
++270081344++--270081408--
++270079872++--270079936--
++989003648++--989003712--
++5450609216++--5450609280--
++5450608896++--5450608960--
++5450609280++--5450609344--
++4236825728++--4236825792--
++7292027392++--7292027456--
++3995843456++--3995843520--
++3995843520++--3995843584--
++3995843392++--3995843456--
++3995843584++--3995843648--
++1006525440++--1006525504--
++4505547712++--4505547776--
++3995843712++--3995843776--
++3995843648++--3995843712--
++3995843776++--3995843840--
++1006525376++--1006525440--
++3995843968++--3995844032--
++3995843904++--3995843968--
++3995843840++--3995843904--
++7691594240++--7691594304--
++7691594304++--7691594368--
++4505547776++--4505547840--
++6641087168++--6641087232--
++7905787584++--7905787648--
++1170556352++--1170556416--
++6137195072++--6137195136--
++7292027264++--7292027328--
++258315136++--258315200--
++7292027328++--7292027392--
++7292027008++--7292027072--
++7292026944++--7292027008--
++7691594432++--7691594496--
++7691594496++--7691594560--
++3995844544++--3995844608--
++3995844480++--3995844544--
++7292026880++--7292026944--
++7691594368++--7691594432--
++7292027072++--7292027136--
++6586913024++--6586913088--
++4563862336++--4563862400--
++4563862464++--4563862528--
++520925632++--520925696--
++520925696++--520925760--
++4236825920++--4236825984--
++6586913216++--6586913280--
++1809664448++--1809664512--
++4236827392++--4236827456--
++6586912960++--6586913024--
++1809664704++--1809664768--
++1809664640++--1809664704--
++4236826368++--4236826432--
++4236826112++--4236826176--
++4236826176++--4236826240--
++4236826240++--4236826304--
++4236825984++--4236826048--
++4236826304++--4236826368--
++4563862080++--4563862144--
++4236825856++--4236825920--
++4236826560++--4236826624--
++4236826496++--4236826560--
++4236826624++--4236826688--
++4563861504++--4563861568--
++4563861760++--4563861824--
++4563861824++--4563861888--
++4563861888++--4563861952--
++4563861632++--4563861696--
++4563861696++--4563861760--
++4236828480++--4236828544--
++4236827136++--4236827200--
++4236827200++--4236827264--
++4236827520++--4236827584--
++4236827456++--4236827520--
++4236827584++--4236827648--
++6705969024++--6705969088--
++6705969088++--6705969152--
++8304765824++--8304765888--
++7094028352++--7094028416--
++7094028416++--7094028480--
++8304762880++--8304762944--
++2008611072++--2008611136--
++3435780480++--3435780544--
++3435780544++--3435780608--
++4236827648++--4236827712--
++2771027392++--2771027456--
++4236828352++--4236828416--
++4563862016++--4563862080--
++4563862528++--4563862592--
++7292028928++--7292028992--
++7292027584++--7292027648--
++7292027648++--7292027712--
++7292027520++--7292027584--
++7292027712++--7292027776--
++1006525312++--1006525376--
++7292027840++--7292027904--
++7292027776++--7292027840--
++7292027904++--7292027968--
++1006525248++--1006525312--
++4505547840++--4505547904--
++7292028032++--7292028096--
++7292027968++--7292028032--
++7292028096++--7292028160--
++1028003520++--1028003584--
++2022497600++--2022497664--
++2811523200++--2811523264--
++2811523264++--2811523328--
++7256115136++--7256115200--
++7292028800++--7292028864--
++7292030528++--7292030592--
++7292030464++--7292030528--
++7292029120++--7292029184--
++7292029184++--7292029248--
++7292029056++--7292029120--
++7292029248++--7292029312--
++1006525184++--1006525248--
++4505547904++--4505547968--
++7292029376++--7292029440--
++7292029312++--7292029376--
++7292029440++--7292029504--
++1006525120++--1006525184--
++7292029568++--7292029632--
++7292029632++--7292029696--
++7292029504++--7292029568--
++7292029696++--7292029760--
++4505547968++--4505548032--
++4614698688++--4614698752--
++3945820928++--3945820992--
++1943597312++--1943597376--
++2811637376++--2811637440--
++7292030400++--7292030464--
++2179676992++--2179677056--
++7292030080++--7292030144--
++7292029760++--7292029824--
++7292029888++--7292029952--
++7292029952++--7292030016--
++7292030144++--7292030208--
++2056789760++--2056789824--
++5617828096++--5617828160--
++5617828224++--5617828288--
++5617828160++--5617828224--
++2056789952++--2056790016--
++520925952++--520926016--
++1809665024++--1809665088--
++4868178752++--4868178816--
++2056789888++--2056789952--
++1809665216++--1809665280--
++4868180288++--4868180352--
++2056789696++--2056789760--
++1809665344++--1809665408--
++1809665280++--1809665344--
++4868179264++--4868179328--
++4868179200++--4868179264--
++4868179008++--4868179072--
++4868178944++--4868179008--
++4868179072++--4868179136--
++4868179136++--4868179200--
++4868178816++--4868178880--
++4868178880++--4868178944--
++5617827840++--5617827904--
++4662280128++--4662280192--
++4868179392++--4868179456--
++4868179456++--4868179520--
++4868179520++--4868179584--
++4868181312++--4868181376--
++4868181376++--4868181440--
++4662279872++--4662279936--
++4662279808++--4662279872--
++4662279936++--4662280000--
++4868181440++--4868181504--
++4868181504++--4868181568--
++4868181184++--4868181248--
++4868181120++--4868181184--
++4868180032++--4868180096--
++4868180096++--4868180160--
++4868180416++--4868180480--
++4868180352++--4868180416--
++4868180672++--4868180736--
++270081408++--270081472--
++270081472++--270081536--
++1684653824++--1684653888--
++7468723200++--7468723264--
++3435779904++--3435779968--
++3435780736++--3435780800--
++3435780800++--3435780864--
++4868181056++--4868181120--
++4868180992++--4868181056--
++4662280000++--4662280064--
++4662280064++--4662280128--
++5617828288++--5617828352--
++6405227584++--6405227648--
++7292030656++--7292030720--
++7292030720++--7292030784--
++7292030592++--7292030656--
++7292030784++--7292030848--
++1006525056++--1006525120--
++7292030912++--7292030976--
++7292030848++--7292030912--
++6405226496++--6405226560--
++1006524992++--1006525056--
++4505548032++--4505548096--
++6405226688++--6405226752--
++6405226624++--6405226688--
++6405226560++--6405226624--
++6405226752++--6405226816--
++6641087232++--6641087296--
++3083204288++--3083204352--
++7791144064++--7791144128--
++7256113728++--7256113792--
++6405227456++--6405227520--
++6396188736++--6396188800--
++6405227136++--6405227200--
++6405226944++--6405227008--
++6405226880++--6405226944--
++6405227008++--6405227072--
++6405227072++--6405227136--
++6405226816++--6405226880--
++6405227200++--6405227264--
++2056789440++--2056789504--
++8493842624++--8493842688--
++8493842752++--8493842816--
++5617828672++--5617828736--
++5617828736++--5617828800--
++4563862720++--4563862784--
++2056789632++--2056789696--
++1809665536++--1809665600--
++5994542976++--5994543040--
++2056789376++--2056789440--
++1809665728++--1809665792--
++1809665664++--1809665728--
++5994542016++--5994542080--
++5994541760++--5994541824--
++5994541824++--5994541888--
++5994541888++--5994541952--
++4563862784++--4563862848--
++5994541952++--5994542016--
++5994545088++--5994545152--
++4868181568++--4868181632--
++5994542208++--5994542272--
++5994542144++--5994542208--
++5994542272++--5994542336--
++5994544576++--5994544640--
++5994544512++--5994544576--
++5994544768++--5994544832--
++5994544832++--5994544896--
++8493842432++--8493842496--
++5994544896++--5994544960--
++5994544704++--5994544768--
++5994544384++--5994544448--
++5994542720++--5994542784--
++5994542784++--5994542848--
++5994542848++--5994542912--
++5994543104++--5994543168--
++5994543040++--5994543104--
++5994543488++--5994543552--
++2056789504++--2056789568--
++1340243712++--1340243776--
++5994543616++--5994543680--
++5994543552++--5994543616--
++5994543680++--5994543744--
++1340243776++--1340243840--
++5994544256++--5994544320--
++5994544960++--5994545024--
++5994544640++--5994544704--
++5994545024++--5994545088--
++8493842816++--8493842880--
++6405229120++--6405229184--
++6405227776++--6405227840--
++6405227712++--6405227776--
++6405227840++--6405227904--
++6405227648++--6405227712--
++6405227904++--6405227968--
++1006524928++--1006524992--
++4505548096++--4505548160--
++6405227968++--6405228032--
++6405228032++--6405228096--
++6405228096++--6405228160--
++1006524864++--1006524928--
++8164589440++--8164589504--
++6405228224++--6405228288--
++6405228160++--6405228224--
++6405228288++--6405228352--
++8164589504++--8164589568--
++4614698240++--4614698304--
++7905784896++--7905784960--
++7791144512++--7791144576--
++7905784960++--7905785024--
++7256113280++--7256113344--
++6405228992++--6405229056--
++6396188864++--6396188928--
++6405229056++--6405229120--
++6405228736++--6405228800--
++6405228672++--6405228736--
++6405228480++--6405228544--
++6405228544++--6405228608--
++6405228608++--6405228672--
++6405228352++--6405228416--
++6405228800++--6405228864--
++2056789120++--2056789184--
++57741888++--57741952--
++57742016++--57742080--
++5617828800++--5617828864--
++5617828864++--5617828928--
++6550213184++--6550213248--
++2056789312++--2056789376--
++8493843136++--8493843200--
++6550214656++--6550214720--
++2056789056++--2056789120--
++8493843392++--8493843456--
++8493843328++--8493843392--
++6550213632++--6550213696--
++6550213376++--6550213440--
++6550213440++--6550213504--
++6550213504++--6550213568--
++6550213248++--6550213312--
++6550213568++--6550213632--
++57741632++--57741696--
++4563862656++--4563862720--
++4563862592++--4563862656--
++6550213824++--6550213888--
++6550213888++--6550213952--
++6550216448++--6550216512--
++57741312++--57741376--
++57741376++--57741440--
++57741440++--57741504--
++6550216576++--6550216640--
++6550216640++--6550216704--
++6550216256++--6550216320--
++6550214400++--6550214464--
++6550214464++--6550214528--
++6550214784++--6550214848--
++6550214720++--6550214784--
++6550215424++--6550215488--
++2056789184++--2056789248--
++1340243840++--1340243904--
++6550215552++--6550215616--
++6550215616++--6550215680--
++1340243904++--1340243968--
++6550216128++--6550216192--
++6550215488++--6550215552--
++57741568++--57741632--
++57742080++--57742144--
++7953473600++--7953473664--
++6405229312++--6405229376--
++6405229376++--6405229440--
++6405229248++--6405229312--
++6405229440++--6405229504--
++1006524800++--1006524864--
++6405229568++--6405229632--
++6405229504++--6405229568--
++6405229632++--6405229696--
++1006524736++--1006524800--
++4150964224++--4150964288--
++6405229760++--6405229824--
++6405229696++--6405229760--
++6405229824++--6405229888--
++7225406208++--7225406272--
++2022496640++--2022496704--
++4774542784++--4774542848--
++7449104640++--7449104704--
++6405230528++--6405230592--
++6396188288++--6396188352--
++3995844288++--3995844352--
++7953473792++--7953473856--
++7953473856++--7953473920--
++7953473728++--7953473792--
++7953473920++--7953473984--
++1006524672++--1006524736--
++4150964288++--4150964352--
++7953474048++--7953474112--
++7953473984++--7953474048--
++7953474112++--7953474176--
++1006524608++--1006524672--
++7953474240++--7953474304--
++7953474304++--7953474368--
++7953474176++--7953474240--
++7953474368++--7953474432--
++4150964352++--4150964416--
++1028003584++--1028003648--
++46827392++--46827456--
++3898040000++--3898040064--
++3907087936++--3907088000--
++1506784704++--1506784768--
++1506784768++--1506784832--
++3907088000++--3907088064--
++7449105792++--7449105856--
++3995844160++--3995844224--
++6396188032++--6396188096--
++3995844224++--3995844288--
++7953474752++--7953474816--
++7953474432++--7953474496--
++7953474560++--7953474624--
++7953474624++--7953474688--
++7953474816++--7953474880--
++2056788608++--2056788672--
++2683409664++--2683409728--
++2683409792++--2683409856--
++2056788800++--2056788864--
++5617829120++--5617829184--
++5617829184++--5617829248--
++8493843712++--8493843776--
++6835099712++--6835099776--
++2056788736++--2056788800--
++8493843904++--8493843968--
++6835101056++--6835101120--
++2056788544++--2056788608--
++8493844032++--8493844096--
++8493843968++--8493844032--
++6835100032++--6835100096--
++8493842944++--8493843008--
++5617828416++--5617828480--
++6835099904++--6835099968--
++6835099776++--6835099840--
++6835099968++--6835100032--
++2683409408++--2683409472--
++6835099648++--6835099712--
++6835100224++--6835100288--
++6835100160++--6835100224--
++6835100288++--6835100352--
++2683408832++--2683408896--
++2683408896++--2683408960--
++2683409088++--2683409152--
++2683409152++--2683409216--
++2683409216++--2683409280--
++2683408960++--2683409024--
++2683409024++--2683409088--
++2683408704++--2683408768--
++2683408640++--2683408704--
++6835100864++--6835100928--
++6835100928++--6835100992--
++6835101248++--6835101312--
++6835101184++--6835101248--
++6184288192++--6184288256--
++6835101120++--6835101184--
++1684652032++--1684652096--
++6835101312++--6835101376--
++3435780160++--3435780224--
++3435781440++--3435781504--
++3435781504++--3435781568--
++2683408576++--2683408640--
++2683408512++--2683408576--
++2683409344++--2683409408--
++2683409920++--2683409984--
++7953477248++--7953477312--
++7953475904++--7953475968--
++7953475968++--7953476032--
++3995844416++--3995844480--
++7953476032++--7953476096--
++1006524544++--1006524608--
++7953476160++--7953476224--
++7953476096++--7953476160--
++7953476224++--7953476288--
++1006524480++--1006524544--
++4150964416++--4150964480--
++7953476352++--7953476416--
++7953476288++--7953476352--
++7953476416++--7953476480--
++7225405696++--7225405760--
++4432147264++--4432147328--
++4088212032++--4088212096--
++3083203776++--3083203840--
++4703425728++--4703425792--
++7256113984++--7256114048--
++7953477120++--7953477184--
++7437718656++--7437718720--
++7953477440++--7953477504--
++7953477504++--7953477568--
++7953477376++--7953477440--
++7953477568++--7953477632--
++1006524416++--1006524480--
++4150964480++--4150964544--
++7437717568++--7437717632--
++7437717504++--7437717568--
++7437717632++--7437717696--
++1006524352++--1006524416--
++7437717760++--7437717824--
++7437717696++--7437717760--
++7437717824++--7437717888--
++4150964544++--4150964608--
++4910847808++--4910847872--
++2022496384++--2022496448--
++3591229568++--3591229632--
++3591229632++--3591229696--
++7449104768++--7449104832--
++7437718528++--7437718592--
++7437720192++--7437720256--
++7437718848++--7437718912--
++7437718912++--7437718976--
++7437718784++--7437718848--
++7437718976++--7437719040--
++1006524288++--1006524352--
++7437719104++--7437719168--
++7437719040++--7437719104--
++7437719168++--7437719232--
++1006524224++--1006524288--
++4150964608++--4150964672--
++7437719296++--7437719360--
++7437719232++--7437719296--
++7437719360++--7437719424--
++4910848832++--4910848896--
++3083203328++--3083203392--
++5567247360++--5567247424--
++5567247424++--5567247488--
++7256114304++--7256114368--
++7437720064++--7437720128--
++6396188608++--6396188672--
++7437719744++--7437719808--
++7437719552++--7437719616--
++7437719488++--7437719552--
++7437719616++--7437719680--
++7437719680++--7437719744--
++7437719424++--7437719488--
++7437719808++--7437719872--
++728938432++--728938496--
++4707503552++--4707503616--
++4707503680++--4707503744--
++728938624++--728938688--
++5617829568++--5617829632--
++8493844672++--8493844736--
++4707500352++--4707500416--
++728938560++--728938624--
++8493844864++--8493844928--
++4707501824++--4707501888--
++728938368++--728938432--
++8493844992++--8493845056--
++8493844928++--8493844992--
++4707500800++--4707500864--
++4707500544++--4707500608--
++4707500608++--4707500672--
++4707500672++--4707500736--
++4707500416++--4707500480--
++4707500736++--4707500800--
++4707503296++--4707503360--
++2793679360++--2793679424--
++2793679296++--2793679360--
++4707500992++--4707501056--
++4707501056++--4707501120--
++4707502720++--4707502784--
++4707502976++--4707503040--
++4707503040++--4707503104--
++4707503104++--4707503168--
++4707502848++--4707502912--
++4707502912++--4707502976--
++4707502528++--4707502592--
++4707501568++--4707501632--
++4707501632++--4707501696--
++4707501760++--4707501824--
++4707501696++--4707501760--
++6835099584++--6835099648--
++728938496++--728938560--
++1382352832++--1382352896--
++1382353280++--1382353344--
++500351104++--500351168--
++4707502400++--4707502464--
++7764430848++--7764430912--
++4707503232++--4707503296--
++4707503744++--4707503808--
++3567183168++--3567183232--
++7437720384++--7437720448--
++7437720320++--7437720384--
++7437720448++--7437720512--
++7437720256++--7437720320--
++7437720512++--7437720576--
++1006524160++--1006524224--
++4150964672++--4150964736--
++7437720576++--7437720640--
++7437720640++--7437720704--
++7437720704++--7437720768--
++1006524096++--1006524160--
++3567182272++--3567182336--
++7437720768++--7437720832--
++3567182336++--3567182400--
++4150964736++--4150964800--
++4614697280++--4614697344--
++3083202560++--3083202624--
++4699601152++--4699601216--
++7256114688++--7256114752--
++3567183040++--3567183104--
++6396188544++--6396188608--
++3567184768++--3567184832--
++3567184704++--3567184768--
++3567183360++--3567183424--
++3567183424++--3567183488--
++3567183296++--3567183360--
++3567183488++--3567183552--
++1006524032++--1006524096--
++3567183616++--3567183680--
++3567183552++--3567183616--
++3567183680++--3567183744--
++1006523968++--1006524032--
++4150964800++--4150964864--
++3567183808++--3567183872--
++3567183872++--3567183936--
++3567183744++--3567183808--
++3567183936++--3567184000--
++1028004160++--1028004224--
++8453096192++--8453096256--
++3851937344++--3851937408--
++7449105088++--7449105152--
++3567184640++--3567184704--
++6396188224++--6396188288--
++3567184320++--3567184384--
++3567184000++--3567184064--
++3567184128++--3567184192--
++3567184192++--3567184256--
++3567184384++--3567184448--
++728937728++--728937792--
++500351424++--500351488--
++500351552++--500351616--
++728938112++--728938176--
++5617829824++--5617829888--
++5617829888++--5617829952--
++8493845312++--8493845376--
++424127808++--424127872--
++728938048++--728938112--
++8493845504++--8493845568--
++7178146688++--7178146752--
++728937664++--728937728--
++8493845952++--8493846016--
++8493845888++--8493845952--
++424128320++--424128384--
++424128256++--424128320--
++424128064++--424128128--
++424128000++--424128064--
++424128128++--424128192--
++424128192++--424128256--
++424127872++--424127936--
++424127936++--424128000--
++500351296++--500351360--
++424128448++--424128512--
++7178145792++--7178145856--
++7178145856++--7178145920--
++7178148608++--7178148672--
++7178148544++--7178148608--
++7178148800++--7178148864--
++7178148864++--7178148928--
++7178148928++--7178148992--
++7178148736++--7178148800--
++7178148416++--7178148480--
++7178146368++--7178146432--
++7178146432++--7178146496--
++7178146816++--7178146880--
++7178146752++--7178146816--
++7178146880++--7178146944--
++7178148288++--7178148352--
++7178148992++--7178149056--
++7178148672++--7178148736--
++7178149056++--7178149120--
++500351744++--500351808--
++113803648++--113803712--
++3567184896++--3567184960--
++3567184960++--3567185024--
++3567184832++--3567184896--
++3567185024++--3567185088--
++1006523904++--1006523968--
++4150964864++--4150964928--
++3567185152++--3567185216--
++3567185088++--3567185152--
++3567185216++--3567185280--
++1006523840++--1006523904--
++3567185408++--3567185472--
++3567185344++--3567185408--
++3567185280++--3567185344--
++3567185472++--3567185536--
++4150964928++--4150964992--
++4910848320++--4910848384--
++2022497856++--2022497920--
++2811523392++--2811523456--
++2811523456++--2811523520--
++7256115008++--7256115072--
++113803520++--113803584--
++6396188480++--6396188544--
++3567185856++--3567185920--
++3567185536++--3567185600--
++3567185664++--3567185728--
++3567185728++--3567185792--
++3567185792++--3567185856--
++3567185600++--3567185664--
++113803264++--113803328--
++728937408++--728937472--
++4377928064++--4377928128--
++4377928192++--4377928256--
++5617829952++--5617830016--
++5617830016++--5617830080--
++500351872++--500351936--
++728937600++--728937664--
++8493846144++--8493846208--
++500353408++--500353472--
++728937344++--728937408--
++8493846336++--8493846400--
++8493846272++--8493846336--
++500352384++--500352448--
++500352320++--500352384--
++500352128++--500352192--
++500352064++--500352128--
++500352192++--500352256--
++500352256++--500352320--
++500351936++--500352000--
++500352000++--500352064--
++4377927808++--4377927872--
++500352512++--500352576--
++500352576++--500352640--
++500352640++--500352704--
++500354624++--500354688--
++500354688++--500354752--
++500354880++--500354944--
++500354944++--500355008--
++500355008++--500355072--
++500354752++--500354816--
++500354816++--500354880--
++500354496++--500354560--
++500354432++--500354496--
++500353152++--500353216--
++500353216++--500353280--
++500353280++--500353344--
++500353536++--500353600--
++500353600++--500353664--
++500353472++--500353536--
++500354368++--500354432--
++500354304++--500354368--
++500353664++--500353728--
++8304765632++--8304765696--
++5840114496++--5840114560--
++5840114560++--5840114624--
++5840115264++--5840115328--
++4377927744++--4377927808--
++4377928320++--4377928384--
++113805184++--113805248--
++113803840++--113803904--
++113803776++--113803840--
++113803904++--113803968--
++113803712++--113803776--
++113803968++--113804032--
++1006523776++--1006523840--
++113804032++--113804096--
++113804096++--113804160--
++113804160++--113804224--
++1006523712++--1006523776--
++4150964992++--4150965056--
++113804288++--113804352--
++113804224++--113804288--
++113804352++--113804416--
++4910849920++--4910849984--
++7905787328++--7905787392--
++1170556096++--1170556160--
++6137195200++--6137195264--
++113805056++--113805120--
++113805120++--113805184--
++113804800++--113804864--
++113804736++--113804800--
++113804544++--113804608--
++113804608++--113804672--
++113804672++--113804736--
++113804416++--113804480--
++113804864++--113804928--
++728937088++--728937152--
++5218304192++--5218304256--
++5218304320++--5218304384--
++5617830144++--5617830208--
++4377928448++--4377928512--
++728937280++--728937344--
++6550212608++--6550212672--
++4377929920++--4377929984--
++6550212800++--6550212864--
++6550212736++--6550212800--
++4377928960++--4377929024--
++4377928896++--4377928960--
++4377928704++--4377928768--
++4377928640++--4377928704--
++4377928768++--4377928832--
++4377928832++--4377928896--
++4377928512++--4377928576--
++4377928576++--4377928640--
++4377931712++--4377931776--
++424127744++--424127808--
++4377929088++--4377929152--
++4377929152++--4377929216--
++4377929216++--4377929280--
++4377931200++--4377931264--
++4377931136++--4377931200--
++4377931392++--4377931456--
++4377931456++--4377931520--
++5218304000++--5218304064--
++4377931520++--4377931584--
++4377931328++--4377931392--
++4377931008++--4377931072--
++4377929728++--4377929792--
++4377929792++--4377929856--
++4377930112++--4377930176--
++4377930048++--4377930112--
++4377929984++--4377930048--
++4377930176++--4377930240--
++4377930240++--4377930304--
++4377929664++--4377929728--
++4377930880++--4377930944--
++4377931584++--4377931648--
Finished CPU 0 instructions: 2000000 cycles: 2430655 cumulative IPC: 0.822823 (Simulation time: 0 hr 0 min 7 sec) 

ChampSim completed all CPUs

Region of Interest Statistics

CPU 0 cumulative IPC: 0.822823 instructions: 2000000 cycles: 2430655
cpu0_DTLB TOTAL     ACCESS:     450574  HIT:     449097  MISS:       1477
cpu0_DTLB LOAD      ACCESS:     309937  HIT:     308743  MISS:       1194
cpu0_DTLB RFO       ACCESS:     140637  HIT:     140354  MISS:        283
cpu0_DTLB PREFETCH  ACCESS:          0  HIT:          0  MISS:          0
cpu0_DTLB WRITEBACK ACCESS:          0  HIT:          0  MISS:          0
cpu0_DTLB TRANSLATION ACCESS:          0  HIT:          0  MISS:          0
cpu0_DTLB PREFETCH  REQUESTED:          0  ISSUED:          0  USEFUL:          0  USELESS:          0
cpu0_DTLB AVERAGE MISS LATENCY: 36.7651 cycles
cpu0_ITLB TOTAL     ACCESS:     231488  HIT:     231449  MISS:         39
cpu0_ITLB LOAD      ACCESS:     231488  HIT:     231449  MISS:         39
cpu0_ITLB RFO       ACCESS:          0  HIT:          0  MISS:          0
cpu0_ITLB PREFETCH  ACCESS:          0  HIT:          0  MISS:          0
cpu0_ITLB WRITEBACK ACCESS:          0  HIT:          0  MISS:          0
cpu0_ITLB TRANSLATION ACCESS:          0  HIT:          0  MISS:          0
cpu0_ITLB PREFETCH  REQUESTED:          0  ISSUED:          0  USEFUL:          0  USELESS:          0
cpu0_ITLB AVERAGE MISS LATENCY: 217 cycles
cpu0_L1I TOTAL     ACCESS:      49153  HIT:      48425  MISS:        728
cpu0_L1I LOAD      ACCESS:      49153  HIT:      48425  MISS:        728
cpu0_L1I RFO       ACCESS:          0  HIT:          0  MISS:          0
cpu0_L1I PREFETCH  ACCESS:          0  HIT:          0  MISS:          0
cpu0_L1I WRITEBACK ACCESS:          0  HIT:          0  MISS:          0
cpu0_L1I TRANSLATION ACCESS:          0  HIT:          0  MISS:          0
cpu0_L1I PREFETCH  REQUESTED:          0  ISSUED:          0  USEFUL:          0  USELESS:          0
cpu0_L1I AVERAGE MISS LATENCY: 73.5948 cycles
cpu0_STLB TOTAL     ACCESS:       1516  HIT:       1292  MISS:        224
cpu0_STLB LOAD      ACCESS:       1233  HIT:       1036  MISS:        197
cpu0_STLB RFO       ACCESS:        283  HIT:        256  MISS:         27
cpu0_STLB PREFETCH  ACCESS:          0  HIT:          0  MISS:          0
cpu0_STLB WRITEBACK ACCESS:          0  HIT:          0  MISS:          0
cpu0_STLB TRANSLATION ACCESS:          0  HIT:          0  MISS:          0
cpu0_STLB PREFETCH  REQUESTED:          0  ISSUED:          0  USEFUL:          0  USELESS:          0
cpu0_STLB AVERAGE MISS LATENCY: 218.871 cycles
cpu0_L1D TOTAL     ACCESS:     534922  HIT:     533696  MISS:       1226
cpu0_L1D LOAD      ACCESS:     308440  HIT:     307302  MISS:       1138
cpu0_L1D RFO       ACCESS:     226256  HIT:     226180  MISS:         76
cpu0_L1D PREFETCH  ACCESS:          0  HIT:          0  MISS:          0
cpu0_L1D WRITEBACK ACCESS:          0  HIT:          0  MISS:          0
cpu0_L1D TRANSLATION ACCESS:        226  HIT:        214  MISS:         12
cpu0_L1D PREFETCH  REQUESTED:          0  ISSUED:          0  USEFUL:          0  USELESS:          0
cpu0_L1D AVERAGE MISS LATENCY: 135.679 cycles
cpu0_L2C TOTAL     ACCESS:       2032  HIT:        418  MISS:       1614
cpu0_L2C LOAD      ACCESS:       1866  HIT:        334  MISS:       1532
cpu0_L2C RFO       ACCESS:         76  HIT:          4  MISS:         72
cpu0_L2C PREFETCH  ACCESS:          0  HIT:          0  MISS:          0
cpu0_L2C WRITEBACK ACCESS:         78  HIT:         78  MISS:          0
cpu0_L2C TRANSLATION ACCESS:         12  HIT:          2  MISS:         10
cpu0_L2C PREFETCH  REQUESTED:          0  ISSUED:          0  USEFUL:          0  USELESS:          0
cpu0_L2C AVERAGE MISS LATENCY: 122.92 cycles
LLC TOTAL     ACCESS:       2986  HIT:        807  MISS:       2179
LLC LOAD      ACCESS:       1532  HIT:        513  MISS:       1019
LLC RFO       ACCESS:         72  HIT:          8  MISS:         64
LLC PREFETCH  ACCESS:       1372  HIT:        286  MISS:       1086
LLC WRITEBACK ACCESS:          0  HIT:          0  MISS:          0
LLC TRANSLATION ACCESS:         10  HIT:          0  MISS:         10
LLC PREFETCH  REQUESTED:       1532  ISSUED:       1532  USEFUL:        598  USELESS:          0
LLC AVERAGE MISS LATENCY: 148.287 cycles

DRAM Statistics
 CHANNEL 0
 RQ ROW_BUFFER_HIT:        327  ROW_BUFFER_MISS:       1852
 DBUS AVG_CONGESTED_CYCLE:    3.75702
 WQ ROW_BUFFER_HIT:          0  ROW_BUFFER_MISS:          0  FULL:          0


CPU 0 Branch Prediction Accuracy: 95.2206% MPKI: 9.5185 Average ROB Occupancy at Mispredict: 67.7239
Branch type MPKI
BRANCH_DIRECT_JUMP: 0.0375
BRANCH_INDIRECT: 2.9215
BRANCH_CONDITIONAL: 6.456
BRANCH_DIRECT_CALL: 0.0295
BRANCH_INDIRECT_CALL: 0.042
BRANCH_RETURN: 0.032

