
*** ChampSim Multicore Out-of-Order Simulator ***

Warmup Instructions: 10000
Simulation Instructions: 200000
Number of CPUs: 1
Off-chip DRAM Size: 4 GiB Channels: 1 Width: 64-bit Data Rate: 3200 MT/s

VirtualMemory physical capacity: 8588881920 num_ppages: 2096895
VirtualMemory page size: 4096 log2_page_size: 12

CPU 0 runs ./traces/400.perlbench-41B.champsimtrace.xz
CPU 0 Bimodal branch predictor
Basic BTB sets: 1024 ways: 8 indirect buffer size: 4096 RAS size: 64
[DEBUG] Addr: 3083472512
[DEBUG] Addr: 3083472576
[DEBUG] Addr: 3083470592
[DEBUG] Addr: 3083470208
[DEBUG] Addr: 3083470272
[DEBUG] Addr: 3083470336
[DEBUG] Addr: 157943680
[DEBUG] Addr: 157943744
[DEBUG] Addr: 5517114880
[DEBUG] Addr: 3083470656
[DEBUG] Addr: 3083472384
[DEBUG] Addr: 3083472448
[DEBUG] Addr: 6109024960
[DEBUG] Addr: 8474182400
[DEBUG] Addr: 8474182464
[DEBUG] Addr: 3813653888
WARNING: The extended signature CACHE::prefetch_line(ip, base_addr, pf_addr, fill_this_level, prefetch_metadata) is deprecated.
WARNING: Use CACHE::prefetch_line(pf_addr, fill_this_level, prefetch_metadata) instead.
[DEBUG] Addr: 7929167936
[DEBUG] Addr: 7081078272
[DEBUG] Addr: 7081078016
[DEBUG] Addr: 7929168640
[DEBUG] Addr: 6109024448
[DEBUG] Addr: 6109025024
[DEBUG] Addr: 157944576
[DEBUG] Addr: 157944640
[DEBUG] Addr: 8349963328
[DEBUG] Addr: 8349963392
[DEBUG] Addr: 3083472256
[DEBUG] Addr: 3083470144
[DEBUG] Addr: 6109025088
[DEBUG] Addr: 157943936
[DEBUG] Addr: 157944000
[DEBUG] Addr: 157944064
[DEBUG] Addr: 6985211328
[DEBUG] Addr: 6985211392
[DEBUG] Addr: 6985211456
[DEBUG] Addr: 3813654016
[DEBUG] Addr: 7081077568
[DEBUG] Addr: 7081077376
[DEBUG] Addr: 6109025152
[DEBUG] Addr: 3657332288
[DEBUG] Addr: 7929169728
[DEBUG] Addr: 5517112832
[DEBUG] Addr: 3083472320
[DEBUG] Addr: 6109025216
[DEBUG] Addr: 6985208192
[DEBUG] Addr: 1743895808
[DEBUG] Addr: 1743895872
[DEBUG] Addr: 1743895936
[DEBUG] Addr: 7003590912
[DEBUG] Addr: 6109025280
[DEBUG] Addr: 5517112704
[DEBUG] Addr: 5517112640
[DEBUG] Addr: 6109025408
[DEBUG] Addr: 6109025472
[DEBUG] Addr: 2633967296
[DEBUG] Addr: 2633967360
[DEBUG] Addr: 2633967488
[DEBUG] Addr: 2633967552
[DEBUG] Addr: 2633967424
[DEBUG] Addr: 6109024512
[DEBUG] Addr: 6109024576
[DEBUG] Addr: 6109024640
[DEBUG] Addr: 6109024704
[DEBUG] Addr: 6109024768
[DEBUG] Addr: 5517113280
[DEBUG] Addr: 3813653696
[DEBUG] Addr: 5517113344
[DEBUG] Addr: 5517113408
[DEBUG] Addr: 5517113472
[DEBUG] Addr: 5517113536
[DEBUG] Addr: 3083470528
[DEBUG] Addr: 6109024832
[DEBUG] Addr: 6109024896

Warmup complete CPU 0 instructions: 10001 cycles: 2570 (Simulation time: 0 hr 0 min 4 sec) 

[DEBUG] Addr: 5517114944
[DEBUG] Addr: 7929169088
[DEBUG] Addr: 3657332224
[DEBUG] Addr: 2633967744
[DEBUG] Addr: 2633967808
[DEBUG] Addr: 2633967936
[DEBUG] Addr: 2633968000
[DEBUG] Addr: 2633967872
[DEBUG] Addr: 2633968192
[DEBUG] Addr: 2633968256
[DEBUG] Addr: 7655523712
[DEBUG] Addr: 2633968320
[DEBUG] Addr: 1743894720
[DEBUG] Addr: 268893824
[DEBUG] Addr: 268893888
[DEBUG] Addr: 7929168384
[DEBUG] Addr: 268893376
[DEBUG] Addr: 268893440
[DEBUG] Addr: 7081077824
[DEBUG] Addr: 268893504
[DEBUG] Addr: 268893568
[DEBUG] Addr: 2633968448
[DEBUG] Addr: 2633968512
[DEBUG] Addr: 7163570816
[DEBUG] Addr: 7163570880
[DEBUG] Addr: 2633968576
[DEBUG] Addr: 7163570112
[DEBUG] Addr: 2633968640
[DEBUG] Addr: 7163570176
[DEBUG] Addr: 7163570240
[DEBUG] Addr: 2633968704
[DEBUG] Addr: 7081078336
[DEBUG] Addr: 1743895552
[DEBUG] Addr: 4992478656
[DEBUG] Addr: 7935859264
[DEBUG] Addr: 3471373184
[DEBUG] Addr: 7882644736
[DEBUG] Addr: 7882644800
[DEBUG] Addr: 7929168064
[DEBUG] Addr: 7882644864
[DEBUG] Addr: 7616001280
[DEBUG] Addr: 7882644928
[DEBUG] Addr: 3471373120
[DEBUG] Addr: 3471373760
[DEBUG] Addr: 1164128384
[DEBUG] Addr: 1164128448
[DEBUG] Addr: 7081078720
[DEBUG] Addr: 5212120320
[DEBUG] Addr: 1236043008
[DEBUG] Addr: 2494969472
[DEBUG] Addr: 5040484096
[DEBUG] Addr: 1164128512
[DEBUG] Addr: 7929169920
[DEBUG] Addr: 3471373696
[DEBUG] Addr: 6868107328
[DEBUG] Addr: 6868107392
[DEBUG] Addr: 7929169152
[DEBUG] Addr: 5040484224
[DEBUG] Addr: 5040484160
[DEBUG] Addr: 6868107584
[DEBUG] Addr: 6868107776
[DEBUG] Addr: 4530009152
[DEBUG] Addr: 6868107840
[DEBUG] Addr: 7929167872
[DEBUG] Addr: 6829180416
[DEBUG] Addr: 6829180480
[DEBUG] Addr: 6868108224
[DEBUG] Addr: 782051328
[DEBUG] Addr: 782051392
[DEBUG] Addr: 782051456
[DEBUG] Addr: 782051520
[DEBUG] Addr: 6868107904
[DEBUG] Addr: 2676041280
[DEBUG] Addr: 6868107968
[DEBUG] Addr: 2419192384
[DEBUG] Addr: 5879034560
[DEBUG] Addr: 5880790272
[DEBUG] Addr: 1572579584
[DEBUG] Addr: 5880790464
[DEBUG] Addr: 5880790528
[DEBUG] Addr: 6868107648
[DEBUG] Addr: 6868107712
[DEBUG] Addr: 3471373568
[DEBUG] Addr: 7616001344
[DEBUG] Addr: 1788343552
[DEBUG] Addr: 3471373632
[DEBUG] Addr: 3471373312
[DEBUG] Addr: 1281715456
[DEBUG] Addr: 1281715520
[DEBUG] Addr: 1281715584
[DEBUG] Addr: 3471373248
[DEBUG] Addr: 7163569792
[DEBUG] Addr: 7163569856
[DEBUG] Addr: 7163569920
[DEBUG] Addr: 4992478720
[DEBUG] Addr: 7929168256
[DEBUG] Addr: 7163569984
[DEBUG] Addr: 156210624
[DEBUG] Addr: 2419192320
[DEBUG] Addr: 2098250368
[DEBUG] Addr: 7163570048
[DEBUG] Addr: 6109024384
[DEBUG] Addr: 7163570432
[DEBUG] Addr: 7163570496
[DEBUG] Addr: 6458232832
[DEBUG] Addr: 7163571456
[DEBUG] Addr: 7163571776
[DEBUG] Addr: 7163571840
[DEBUG] Addr: 7081077696
[DEBUG] Addr: 7163570560
[DEBUG] Addr: 7163570624
[DEBUG] Addr: 7163571712
[DEBUG] Addr: 7163570688
[DEBUG] Addr: 7163570752
[DEBUG] Addr: 7163571904
[DEBUG] Addr: 5212120384
[DEBUG] Addr: 6603708928
[DEBUG] Addr: 6603708992
[DEBUG] Addr: 6603709120
[DEBUG] Addr: 6603709056
[DEBUG] Addr: 6603709184
[DEBUG] Addr: 268890176
[DEBUG] Addr: 268890240
[DEBUG] Addr: 3471372288
[DEBUG] Addr: 6603709248
[DEBUG] Addr: 268890368
[DEBUG] Addr: 268890432
[DEBUG] Addr: 268891584
[DEBUG] Addr: 4530009280
[DEBUG] Addr: 268892224
[DEBUG] Addr: 268891712
[DEBUG] Addr: 268891776
[DEBUG] Addr: 5654277696
[DEBUG] Addr: 268891136
[DEBUG] Addr: 3471372608
[DEBUG] Addr: 268893184
[DEBUG] Addr: 268893248
[DEBUG] Addr: 156210752
[DEBUG] Addr: 268893312
[DEBUG] Addr: 2419193024
[DEBUG] Addr: 2419193088
[DEBUG] Addr: 268893632
[DEBUG] Addr: 268893696
[DEBUG] Addr: 268893760
[DEBUG] Addr: 7655523456
[DEBUG] Addr: 7655523520
[DEBUG] Addr: 6109024320
[DEBUG] Addr: 7655523584
[DEBUG] Addr: 7655523648
[DEBUG] Addr: 3813653632
[DEBUG] Addr: 157941824
[DEBUG] Addr: 3083470848
[DEBUG] Addr: 3813653952
[DEBUG] Addr: 157943616
[DEBUG] Addr: 157943104
[DEBUG] Addr: 3813652992
[DEBUG] Addr: 5517112256
[DEBUG] Addr: 5517112320
[DEBUG] Addr: 157943232
[DEBUG] Addr: 5517112384
[DEBUG] Addr: 448021248
[DEBUG] Addr: 448021312
[DEBUG] Addr: 3813653568
[DEBUG] Addr: 448022848
[DEBUG] Addr: 448021440
[DEBUG] Addr: 5517112448
[DEBUG] Addr: 5517112512
[DEBUG] Addr: 5517112768
[DEBUG] Addr: 3813652928
[DEBUG] Addr: 157943168
[DEBUG] Addr: 3813653440
[DEBUG] Addr: 448021504
[DEBUG] Addr: 448023552
[DEBUG] Addr: 448023616
[DEBUG] Addr: 6502316032
[DEBUG] Addr: 6502316096
[DEBUG] Addr: 6502316544
[DEBUG] Addr: 6502316608
[DEBUG] Addr: 6502316992
[DEBUG] Addr: 6502316416
[DEBUG] Addr: 3657332352
[DEBUG] Addr: 6502317120
[DEBUG] Addr: 448020544
[DEBUG] Addr: 448021376
[DEBUG] Addr: 7524894144
[DEBUG] Addr: 1851918912
[DEBUG] Addr: 5564852224
Finished CPU 0 instructions: 200001 cycles: 258240 cumulative IPC: 0.774477 (Simulation time: 0 hr 0 min 15 sec) 

ChampSim completed all CPUs

Region of Interest Statistics

CPU 0 cumulative IPC: 0.774477 instructions: 200001 cycles: 258240
cpu0_DTLB TOTAL     ACCESS:      44673  HIT:      44650  MISS:         23
cpu0_DTLB LOAD      ACCESS:      30951  HIT:      30931  MISS:         20
cpu0_DTLB RFO       ACCESS:      13722  HIT:      13719  MISS:          3
cpu0_DTLB PREFETCH  ACCESS:          0  HIT:          0  MISS:          0
cpu0_DTLB WRITEBACK ACCESS:          0  HIT:          0  MISS:          0
cpu0_DTLB TRANSLATION ACCESS:          0  HIT:          0  MISS:          0
cpu0_DTLB PREFETCH  REQUESTED:          0  ISSUED:          0  USEFUL:          0  USELESS:          0
cpu0_DTLB AVERAGE MISS LATENCY: 291.783 cycles
cpu0_ITLB TOTAL     ACCESS:      24876  HIT:      24863  MISS:         13
cpu0_ITLB LOAD      ACCESS:      24876  HIT:      24863  MISS:         13
cpu0_ITLB RFO       ACCESS:          0  HIT:          0  MISS:          0
cpu0_ITLB PREFETCH  ACCESS:          0  HIT:          0  MISS:          0
cpu0_ITLB WRITEBACK ACCESS:          0  HIT:          0  MISS:          0
cpu0_ITLB TRANSLATION ACCESS:          0  HIT:          0  MISS:          0
cpu0_ITLB PREFETCH  REQUESTED:          0  ISSUED:          0  USEFUL:          0  USELESS:          0
cpu0_ITLB AVERAGE MISS LATENCY: 217 cycles
cpu0_L1I TOTAL     ACCESS:       1981  HIT:       1869  MISS:        112
cpu0_L1I LOAD      ACCESS:       1981  HIT:       1869  MISS:        112
cpu0_L1I RFO       ACCESS:          0  HIT:          0  MISS:          0
cpu0_L1I PREFETCH  ACCESS:          0  HIT:          0  MISS:          0
cpu0_L1I WRITEBACK ACCESS:          0  HIT:          0  MISS:          0
cpu0_L1I TRANSLATION ACCESS:          0  HIT:          0  MISS:          0
cpu0_L1I PREFETCH  REQUESTED:          0  ISSUED:          0  USEFUL:          0  USELESS:          0
cpu0_L1I AVERAGE MISS LATENCY: 196.562 cycles
cpu0_STLB TOTAL     ACCESS:         36  HIT:          0  MISS:         36
cpu0_STLB LOAD      ACCESS:         33  HIT:          0  MISS:         33
cpu0_STLB RFO       ACCESS:          3  HIT:          0  MISS:          3
cpu0_STLB PREFETCH  ACCESS:          0  HIT:          0  MISS:          0
cpu0_STLB WRITEBACK ACCESS:          0  HIT:          0  MISS:          0
cpu0_STLB TRANSLATION ACCESS:          0  HIT:          0  MISS:          0
cpu0_STLB PREFETCH  REQUESTED:          0  ISSUED:          0  USEFUL:          0  USELESS:          0
cpu0_STLB AVERAGE MISS LATENCY: 255.778 cycles
cpu0_L1D TOTAL     ACCESS:      51591  HIT:      51495  MISS:         96
cpu0_L1D LOAD      ACCESS:      30496  HIT:      30421  MISS:         75
cpu0_L1D RFO       ACCESS:      21057  HIT:      21042  MISS:         15
cpu0_L1D PREFETCH  ACCESS:          0  HIT:          0  MISS:          0
cpu0_L1D WRITEBACK ACCESS:          0  HIT:          0  MISS:          0
cpu0_L1D TRANSLATION ACCESS:         38  HIT:         32  MISS:          6
cpu0_L1D PREFETCH  REQUESTED:          0  ISSUED:          0  USEFUL:          0  USELESS:          0
cpu0_L1D AVERAGE MISS LATENCY: 214.396 cycles
cpu0_L2C TOTAL     ACCESS:        208  HIT:          0  MISS:        208
cpu0_L2C LOAD      ACCESS:        187  HIT:          0  MISS:        187
cpu0_L2C RFO       ACCESS:         15  HIT:          0  MISS:         15
cpu0_L2C PREFETCH  ACCESS:          0  HIT:          0  MISS:          0
cpu0_L2C WRITEBACK ACCESS:          0  HIT:          0  MISS:          0
cpu0_L2C TRANSLATION ACCESS:          6  HIT:          0  MISS:          6
cpu0_L2C PREFETCH  REQUESTED:          0  ISSUED:          0  USEFUL:          0  USELESS:          0
cpu0_L2C AVERAGE MISS LATENCY: 193.76 cycles
LLC TOTAL     ACCESS:        392  HIT:          3  MISS:        389
LLC LOAD      ACCESS:        187  HIT:          0  MISS:        187
LLC RFO       ACCESS:         15  HIT:          0  MISS:         15
LLC PREFETCH  ACCESS:        184  HIT:          3  MISS:        181
LLC WRITEBACK ACCESS:          0  HIT:          0  MISS:          0
LLC TRANSLATION ACCESS:          6  HIT:          0  MISS:          6
LLC PREFETCH  REQUESTED:        187  ISSUED:        185  USEFUL:          3  USELESS:          0
LLC AVERAGE MISS LATENCY: 191.933 cycles

DRAM Statistics
 CHANNEL 0
 RQ ROW_BUFFER_HIT:         13  ROW_BUFFER_MISS:        376
 DBUS AVG_CONGESTED_CYCLE:    3.68354
 WQ ROW_BUFFER_HIT:          0  ROW_BUFFER_MISS:          0  FULL:          0


CPU 0 Branch Prediction Accuracy: 94.5026% MPKI: 10.2599 Average ROB Occupancy at Mispredict: 64.6218
Branch type MPKI
BRANCH_DIRECT_JUMP: 0.0999995
BRANCH_INDIRECT: 3.67998
BRANCH_CONDITIONAL: 6.33997
BRANCH_DIRECT_CALL: 0.0399998
BRANCH_INDIRECT_CALL: 0.0299999
BRANCH_RETURN: 0.0699997

