
*** ChampSim Multicore Out-of-Order Simulator ***

Warmup Instructions: 10000
Simulation Instructions: 20
Number of CPUs: 1
Off-chip DRAM Size: 4 GiB Channels: 1 Width: 64-bit Data Rate: 3200 MT/s

VirtualMemory physical capacity: 8588881920 num_ppages: 2096895
VirtualMemory page size: 4096 log2_page_size: 12

CPU 0 runs ./traces/400.perlbench-41B.champsimtrace.xz
CPU 0 Bimodal branch predictor
Basic BTB sets: 1024 ways: 8 indirect buffer size: 4096 RAS size: 64
buffer is 0,6705970816,
--1684654016--buffer is 0,6705970816,6705970880,
--1684654016--buffer is 0,6705970816,6705970880,6705968896,
--1684654016--buffer is 0,6705970816,6705970880,6705968896,6705968512,
--1684654016--buffer is 0,6705970816,6705970880,6705968896,6705968512,6705968576,
--1684654016--buffer is 0,6705970816,6705970880,6705968896,6705968512,6705968576,6705968640,
--1684654016--buffer is 0,6705970816,6705970880,6705968896,6705968512,6705968576,6705968640,1684653952,
--1684654016--buffer is 0,6705970816,6705970880,6705968896,6705968512,6705968576,6705968640,1684653952,1684654016,
--1684654016--buffer is 0,6705970816,6705970880,6705968896,6705968512,6705968576,6705968640,1684653952,1684654016,5840117248,
--1684654016--buffer is 0,6705970816,6705970880,6705968896,6705968512,6705968576,6705968640,1684653952,1684654016,5840117248,6705968960,
--1684654016--buffer is 0,6705970816,6705970880,6705968896,6705968512,6705968576,6705968640,1684653952,1684654016,5840117248,6705968960,6705970688,
--1684654016--buffer is 0,6705970816,6705970880,6705968896,6705968512,6705968576,6705968640,1684653952,1684654016,5840117248,6705968960,6705970688,6705970752,
--1684654016--buffer is 0,6705970816,6705970880,6705968896,6705968512,6705968576,6705968640,1684653952,1684654016,5840117248,6705968960,6705970688,6705970752,7625491136,
--1684654016--buffer is 0,6705970816,6705970880,6705968896,6705968512,6705968576,6705968640,1684653952,1684654016,5840117248,6705968960,6705970688,6705970752,7625491136,5210694400,
--1684654016--buffer is 0,6705970816,6705970880,6705968896,6705968512,6705968576,6705968640,1684653952,1684654016,5840117248,6705968960,6705970688,6705970752,7625491136,5210694400,5210694464,
--1684654016--buffer is 6705970816,6705970880,6705968896,6705968512,6705968576,6705968640,1684653952,1684654016,5840117248,6705968960,6705970688,6705970752,7625491136,5210694400,5210694464,,7468723584
--16846540164--buffer is 6705970880,6705968896,6705968512,6705968576,6705968640,1684653952,1684654016,5840117248,6705968960,6705970688,6705970752,7625491136,5210694400,5210694464,,7468723584,4643160128
--16846540168--buffer is 6705968896,6705968512,6705968576,6705968640,1684653952,1684654016,5840117248,6705968960,6705970688,6705970752,7625491136,5210694400,5210694464,,7468723584,4643160128,5471505920
--16846540160--buffer is 6705968512,6705968576,6705968640,1684653952,1684654016,5840117248,6705968960,6705970688,6705970752,7625491136,5210694400,5210694464,,7468723584,4643160128,5471505920,5471505664
--16846540164--buffer is 6705968576,6705968640,1684653952,1684654016,5840117248,6705968960,6705970688,6705970752,7625491136,5210694400,5210694464,,7468723584,4643160128,5471505920,5471505664,4643160832
--16846540162--buffer is 6705968640,1684653952,1684654016,5840117248,6705968960,6705970688,6705970752,7625491136,5210694400,5210694464,,7468723584,4643160128,5471505920,5471505664,4643160832,7625490624
--16846540164--buffer is 1684653952,1684654016,5840117248,6705968960,6705970688,6705970752,7625491136,5210694400,5210694464,,7468723584,4643160128,5471505920,5471505664,4643160832,7625490624,7625491200
--16846540160--buffer is 1684654016,5840117248,6705968960,6705970688,6705970752,7625491136,5210694400,5210694464,,7468723584,4643160128,5471505920,5471505664,4643160832,7625490624,7625491200,1684654848
--16846540168--buffer is 5840117248,6705968960,6705970688,6705970752,7625491136,5210694400,5210694464,,7468723584,4643160128,5471505920,5471505664,4643160832,7625490624,7625491200,1684654848,1684654912
--16846540162--buffer is 6705968960,6705970688,6705970752,7625491136,5210694400,5210694464,,7468723584,4643160128,5471505920,5471505664,4643160832,7625490624,7625491200,1684654848,1684654912,8304763968
--16846540168--buffer is 6705970688,6705970752,7625491136,5210694400,5210694464,,7468723584,4643160128,5471505920,5471505664,4643160832,7625490624,7625491200,1684654848,1684654912,8304763968,8304764032
--16846540162--buffer is 6705970752,7625491136,5210694400,5210694464,,7468723584,4643160128,5471505920,5471505664,4643160832,7625490624,7625491200,1684654848,1684654912,8304763968,8304764032,6705970560
--16846540160--buffer is 7625491136,5210694400,5210694464,,7468723584,4643160128,5471505920,5471505664,4643160832,7625490624,7625491200,1684654848,1684654912,8304763968,8304764032,6705970560,6705968448
--16846540168--buffer is 5210694400,5210694464,,7468723584,4643160128,5471505920,5471505664,4643160832,7625490624,7625491200,1684654848,1684654912,8304763968,8304764032,6705970560,6705968448,7625491264
--16846540164--buffer is 5210694464,,7468723584,4643160128,5471505920,5471505664,4643160832,7625490624,7625491200,1684654848,1684654912,8304763968,8304764032,6705970560,6705968448,7625491264,1684654208
--16846540168--buffer is ,7468723584,4643160128,5471505920,5471505664,4643160832,7625490624,7625491200,1684654848,1684654912,8304763968,8304764032,6705970560,6705968448,7625491264,1684654208,1684654272
--16846540162--buffer is 7468723584,4643160128,5471505920,5471505664,4643160832,7625490624,7625491200,1684654848,1684654912,8304763968,8304764032,6705970560,6705968448,7625491264,1684654208,1684654272,1684654336
--16846540166--buffer is 4643160128,5471505920,5471505664,4643160832,7625490624,7625491200,1684654848,1684654912,8304763968,8304764032,6705970560,6705968448,7625491264,1684654208,1684654272,1684654336,5960265152
--16846540162--buffer is 5471505920,5471505664,4643160832,7625490624,7625491200,1684654848,1684654912,8304763968,8304764032,6705970560,6705968448,7625491264,1684654208,1684654272,1684654336,5960265152,5960265216
--16846540166--buffer is 5471505664,4643160832,7625490624,7625491200,1684654848,1684654912,8304763968,8304764032,6705970560,6705968448,7625491264,1684654208,1684654272,1684654336,5960265152,5960265216,5960265280
--16846540160--buffer is 4643160832,7625490624,7625491200,1684654848,1684654912,8304763968,8304764032,6705970560,6705968448,7625491264,1684654208,1684654272,1684654336,5960265152,5960265216,5960265280,7468723712
--16846540162--buffer is 7625490624,7625491200,1684654848,1684654912,8304763968,8304764032,6705970560,6705968448,7625491264,1684654208,1684654272,1684654336,5960265152,5960265216,5960265280,7468723712,5471505216
--16846540166--buffer is 7625491200,1684654848,1684654912,8304763968,8304764032,6705970560,6705968448,7625491264,1684654208,1684654272,1684654336,5960265152,5960265216,5960265280,7468723712,5471505216,5471505024
--16846540164--buffer is 1684654848,1684654912,8304763968,8304764032,6705970560,6705968448,7625491264,1684654208,1684654272,1684654336,5960265152,5960265216,5960265280,7468723712,5471505216,5471505024,7625491328
--16846540168--buffer is 1684654912,8304763968,8304764032,6705970560,6705968448,7625491264,1684654208,1684654272,1684654336,5960265152,5960265216,5960265280,7468723712,5471505216,5471505024,7625491328,6743856704
--16846540164--buffer is 8304763968,8304764032,6705970560,6705968448,7625491264,1684654208,1684654272,1684654336,5960265152,5960265216,5960265280,7468723712,5471505216,5471505024,7625491328,6743856704,4643161920
--16846540160--buffer is 8304764032,6705970560,6705968448,7625491264,1684654208,1684654272,1684654336,5960265152,5960265216,5960265280,7468723712,5471505216,5471505024,7625491328,6743856704,4643161920,5840115200
--16846540160--buffer is 6705970560,6705968448,7625491264,1684654208,1684654272,1684654336,5960265152,5960265216,5960265280,7468723712,5471505216,5471505024,7625491328,6743856704,4643161920,5840115200,6705970624
--16846540164--buffer is 6705968448,7625491264,1684654208,1684654272,1684654336,5960265152,5960265216,5960265280,7468723712,5471505216,5471505024,7625491328,6743856704,4643161920,5840115200,6705970624,7625491392
--16846540162--buffer is 7625491264,1684654208,1684654272,1684654336,5960265152,5960265216,5960265280,7468723712,5471505216,5471505024,7625491328,6743856704,4643161920,5840115200,6705970624,7625491392,5960262016
--16846540166--buffer is 1684654208,1684654272,1684654336,5960265152,5960265216,5960265280,7468723712,5471505216,5471505024,7625491328,6743856704,4643161920,5840115200,6705970624,7625491392,5960262016,5464591616
--16846540166--buffer is 1684654272,1684654336,5960265152,5960265216,5960265280,7468723712,5471505216,5471505024,7625491328,6743856704,4643161920,5840115200,6705970624,7625491392,5960262016,5464591616,5464591680
--16846540160--buffer is 1684654336,5960265152,5960265216,5960265280,7468723712,5471505216,5471505024,7625491328,6743856704,4643161920,5840115200,6705970624,7625491392,5960262016,5464591616,5464591680,5464591744
--16846540164--buffer is 5960265152,5960265216,5960265280,7468723712,5471505216,5471505024,7625491328,6743856704,4643161920,5840115200,6705970624,7625491392,5960262016,5464591616,5464591680,5464591744,3494813952
--16846540162--buffer is 5960265216,5960265280,7468723712,5471505216,5471505024,7625491328,6743856704,4643161920,5840115200,6705970624,7625491392,5960262016,5464591616,5464591680,5464591744,3494813952,7625491456
--16846540166--buffer is 5960265280,7468723712,5471505216,5471505024,7625491328,6743856704,4643161920,5840115200,6705970624,7625491392,5960262016,5464591616,5464591680,5464591744,3494813952,7625491456,5840115072
--16846540162--buffer is 7468723712,5471505216,5471505024,7625491328,6743856704,4643161920,5840115200,6705970624,7625491392,5960262016,5464591616,5464591680,5464591744,3494813952,7625491456,5840115072,5840115008
--16846540168--buffer is 5471505216,5471505024,7625491328,6743856704,4643161920,5840115200,6705970624,7625491392,5960262016,5464591616,5464591680,5464591744,3494813952,7625491456,5840115072,5840115008,7625491584
--16846540164--buffer is 5471505024,7625491328,6743856704,4643161920,5840115200,6705970624,7625491392,5960262016,5464591616,5464591680,5464591744,3494813952,7625491456,5840115072,5840115008,7625491584,7625491648
--16846540168--buffer is 7625491328,6743856704,4643161920,5840115200,6705970624,7625491392,5960262016,5464591616,5464591680,5464591744,3494813952,7625491456,5840115072,5840115008,7625491584,7625491648,1209112256
--16846540166--buffer is 6743856704,4643161920,5840115200,6705970624,7625491392,5960262016,5464591616,5464591680,5464591744,3494813952,7625491456,5840115072,5840115008,7625491584,7625491648,1209112256,1209112320
--16846540160--buffer is 4643161920,5840115200,6705970624,7625491392,5960262016,5464591616,5464591680,5464591744,3494813952,7625491456,5840115072,5840115008,7625491584,7625491648,1209112256,1209112320,1209112448
--16846540168--buffer is 5840115200,6705970624,7625491392,5960262016,5464591616,5464591680,5464591744,3494813952,7625491456,5840115072,5840115008,7625491584,7625491648,1209112256,1209112320,1209112448,1209112512
--16846540162--buffer is 6705970624,7625491392,5960262016,5464591616,5464591680,5464591744,3494813952,7625491456,5840115072,5840115008,7625491584,7625491648,1209112256,1209112320,1209112448,1209112512,1209112384
--16846540164--buffer is 7625491392,5960262016,5464591616,5464591680,5464591744,3494813952,7625491456,5840115072,5840115008,7625491584,7625491648,1209112256,1209112320,1209112448,1209112512,1209112384,7625490688
--16846540168--buffer is 5960262016,5464591616,5464591680,5464591744,3494813952,7625491456,5840115072,5840115008,7625491584,7625491648,1209112256,1209112320,1209112448,1209112512,1209112384,7625490688,7625490752
--16846540162--buffer is 5464591616,5464591680,5464591744,3494813952,7625491456,5840115072,5840115008,7625491584,7625491648,1209112256,1209112320,1209112448,1209112512,1209112384,7625490688,7625490752,7625490816
--16846540166--buffer is 5464591680,5464591744,3494813952,7625491456,5840115072,5840115008,7625491584,7625491648,1209112256,1209112320,1209112448,1209112512,1209112384,7625490688,7625490752,7625490816,7625490880
--16846540160--buffer is 5464591744,3494813952,7625491456,5840115072,5840115008,7625491584,7625491648,1209112256,1209112320,1209112448,1209112512,1209112384,7625490688,7625490752,7625490816,7625490880,7625490944
--16846540164--buffer is 3494813952,7625491456,5840115072,5840115008,7625491584,7625491648,1209112256,1209112320,1209112448,1209112512,1209112384,7625490688,7625490752,7625490816,7625490880,7625490944,5840115648
--16846540168--buffer is 7625491456,5840115072,5840115008,7625491584,7625491648,1209112256,1209112320,1209112448,1209112512,1209112384,7625490688,7625490752,7625490816,7625490880,7625490944,5840115648,7468723392
--16846540162--buffer is 5840115072,5840115008,7625491584,7625491648,1209112256,1209112320,1209112448,1209112512,1209112384,7625490688,7625490752,7625490816,7625490880,7625490944,5840115648,7468723392,5840115712
--16846540162--buffer is 5840115008,7625491584,7625491648,1209112256,1209112320,1209112448,1209112512,1209112384,7625490688,7625490752,7625490816,7625490880,7625490944,5840115648,7468723392,5840115712,5840115776
--16846540166--buffer is 7625491584,7625491648,1209112256,1209112320,1209112448,1209112512,1209112384,7625490688,7625490752,7625490816,7625490880,7625490944,5840115648,7468723392,5840115712,5840115776,5840115840
--16846540160--buffer is 7625491648,1209112256,1209112320,1209112448,1209112512,1209112384,7625490688,7625490752,7625490816,7625490880,7625490944,5840115648,7468723392,5840115712,5840115776,5840115840,5840115904
--16846540164--buffer is 1209112256,1209112320,1209112448,1209112512,1209112384,7625490688,7625490752,7625490816,7625490880,7625490944,5840115648,7468723392,5840115712,5840115776,5840115840,5840115904,6705968832
--16846540162--buffer is 1209112320,1209112448,1209112512,1209112384,7625490688,7625490752,7625490816,7625490880,7625490944,5840115648,7468723392,5840115712,5840115776,5840115840,5840115904,6705968832,7625491008
--16846540168--buffer is 1209112448,1209112512,1209112384,7625490688,7625490752,7625490816,7625490880,7625490944,5840115648,7468723392,5840115712,5840115776,5840115840,5840115904,6705968832,7625491008,7625491072
--16846540162--
Warmup complete CPU 0 instructions: 10001 cycles: 2570 (Simulation time: 0 hr 0 min 0 sec) 

Finished CPU 0 instructions: 20 cycles: 5 cumulative IPC: 4 (Simulation time: 0 hr 0 min 0 sec) 

ChampSim completed all CPUs

Region of Interest Statistics

CPU 0 cumulative IPC: 4 instructions: 20 cycles: 5
cpu0_DTLB TOTAL     ACCESS:          3  HIT:          3  MISS:          0
cpu0_DTLB LOAD      ACCESS:          2  HIT:          2  MISS:          0
cpu0_DTLB RFO       ACCESS:          1  HIT:          1  MISS:          0
cpu0_DTLB PREFETCH  ACCESS:          0  HIT:          0  MISS:          0
cpu0_DTLB WRITEBACK ACCESS:          0  HIT:          0  MISS:          0
cpu0_DTLB TRANSLATION ACCESS:          0  HIT:          0  MISS:          0
cpu0_DTLB PREFETCH  REQUESTED:          0  ISSUED:          0  USEFUL:          0  USELESS:          0
cpu0_DTLB AVERAGE MISS LATENCY: nan cycles
cpu0_ITLB TOTAL     ACCESS:          2  HIT:          2  MISS:          0
cpu0_ITLB LOAD      ACCESS:          2  HIT:          2  MISS:          0
cpu0_ITLB RFO       ACCESS:          0  HIT:          0  MISS:          0
cpu0_ITLB PREFETCH  ACCESS:          0  HIT:          0  MISS:          0
cpu0_ITLB WRITEBACK ACCESS:          0  HIT:          0  MISS:          0
cpu0_ITLB TRANSLATION ACCESS:          0  HIT:          0  MISS:          0
cpu0_ITLB PREFETCH  REQUESTED:          0  ISSUED:          0  USEFUL:          0  USELESS:          0
cpu0_ITLB AVERAGE MISS LATENCY: nan cycles
cpu0_L1I TOTAL     ACCESS:          3  HIT:          3  MISS:          0
cpu0_L1I LOAD      ACCESS:          3  HIT:          3  MISS:          0
cpu0_L1I RFO       ACCESS:          0  HIT:          0  MISS:          0
cpu0_L1I PREFETCH  ACCESS:          0  HIT:          0  MISS:          0
cpu0_L1I WRITEBACK ACCESS:          0  HIT:          0  MISS:          0
cpu0_L1I TRANSLATION ACCESS:          0  HIT:          0  MISS:          0
cpu0_L1I PREFETCH  REQUESTED:          0  ISSUED:          0  USEFUL:          0  USELESS:          0
cpu0_L1I AVERAGE MISS LATENCY: nan cycles
cpu0_L1D TOTAL     ACCESS:          1  HIT:          1  MISS:          0
cpu0_L1D LOAD      ACCESS:          1  HIT:          1  MISS:          0
cpu0_L1D RFO       ACCESS:          0  HIT:          0  MISS:          0
cpu0_L1D PREFETCH  ACCESS:          0  HIT:          0  MISS:          0
cpu0_L1D WRITEBACK ACCESS:          0  HIT:          0  MISS:          0
cpu0_L1D TRANSLATION ACCESS:          0  HIT:          0  MISS:          0
cpu0_L1D PREFETCH  REQUESTED:          0  ISSUED:          0  USEFUL:          0  USELESS:          0
cpu0_L1D AVERAGE MISS LATENCY: nan cycles

DRAM Statistics
 CHANNEL 0
 RQ ROW_BUFFER_HIT:          0  ROW_BUFFER_MISS:          0
 DBUS AVG_CONGESTED_CYCLE: -
 WQ ROW_BUFFER_HIT:          0  ROW_BUFFER_MISS:          0  FULL:          0


CPU 0 Branch Prediction Accuracy: 100% MPKI: 0 Average ROB Occupancy at Mispredict: nan
Branch type MPKI
BRANCH_DIRECT_JUMP: 0
BRANCH_INDIRECT: 0
BRANCH_CONDITIONAL: 0
BRANCH_DIRECT_CALL: 0
BRANCH_INDIRECT_CALL: 0
BRANCH_RETURN: 0

