
*** ChampSim Multicore Out-of-Order Simulator ***

Warmup Instructions: 10000
Simulation Instructions: 2000000
Number of CPUs: 1
Off-chip DRAM Size: 4 GiB Channels: 1 Width: 64-bit Data Rate: 3200 MT/s

VirtualMemory physical capacity: 8588881920 num_ppages: 2096895
VirtualMemory page size: 4096 log2_page_size: 12

CPU 0 runs ./traces/400.perlbench-41B.champsimtrace.xz
CPU 0 Bimodal branch predictor
Basic BTB sets: 1024 ways: 8 indirect buffer size: 4096 RAS size: 64
[INFO] Current addr: 3813653888, Transformer predicted: 3813653952
WARNING: The extended signature CACHE::prefetch_line(ip, base_addr, pf_addr, fill_this_level, prefetch_metadata) is deprecated.
WARNING: Use CACHE::prefetch_line(pf_addr, fill_this_level, prefetch_metadata) instead.
[INFO] Current addr: 7929167936, Transformer predicted: 6603708672
[INFO] Current addr: 7081078272, Transformer predicted: 7081078016
[INFO] Current addr: 7081078016, Transformer predicted: 2633966976
[INFO] Current addr: 7929168640, Transformer predicted: 3813651136
[INFO] Current addr: 6109024448, Transformer predicted: 1231683840
[INFO] Current addr: 6109025024, Transformer predicted: 3813651264
[INFO] Current addr: 157944576, Transformer predicted: 6600395584
[INFO] Current addr: 157944640, Transformer predicted: 5517112384
[INFO] Current addr: 8349963328, Transformer predicted: 1231684736
[INFO] Current addr: 8349963392, Transformer predicted: 1231686272
[INFO] Current addr: 3083472256, Transformer predicted: 7655523712
[INFO] Current addr: 3083470144, Transformer predicted: 3083470592
[INFO] Current addr: 6109025088, Transformer predicted: 3083469696
[INFO] Current addr: 157943936, Transformer predicted: 1231685824
[INFO] Current addr: 157944000, Transformer predicted: 1231685888
[INFO] Current addr: 157944064, Transformer predicted: 1231685376
[INFO] Current addr: 6985211328, Transformer predicted: 8223083200
[INFO] Current addr: 6985211392, Transformer predicted: 6502317312
[INFO] Current addr: 6985211456, Transformer predicted: 3083471552
[INFO] Current addr: 3813654016, Transformer predicted: 1743895808
[INFO] Current addr: 7081077568, Transformer predicted: 1743895808
[INFO] Current addr: 7081077376, Transformer predicted: 1743892800
[INFO] Current addr: 6109025152, Transformer predicted: 3813651392
[INFO] Current addr: 3657332288, Transformer predicted: 5330710784
[INFO] Current addr: 7929169728, Transformer predicted: 6802089024
[INFO] Current addr: 5517112832, Transformer predicted: 1231687104
[INFO] Current addr: 3083472320, Transformer predicted: 3813651392
[INFO] Current addr: 6109025216, Transformer predicted: 3083470528
[INFO] Current addr: 6985208192, Transformer predicted: 6985208832
[INFO] Current addr: 1743895808, Transformer predicted: 1743895872
[INFO] Current addr: 1743895872, Transformer predicted: 1743895936
[INFO] Current addr: 1743895936, Transformer predicted: 8349963392
[INFO] Current addr: 7003590912, Transformer predicted: 7003591680
[INFO] Current addr: 6109025280, Transformer predicted: 7003591744
[INFO] Current addr: 5517112704, Transformer predicted: 1743894656
[INFO] Current addr: 5517112640, Transformer predicted: 2419192704
[INFO] Current addr: 6109025408, Transformer predicted: 3017438272
[INFO] Current addr: 6109025472, Transformer predicted: 6109025728
[INFO] Current addr: 2633967296, Transformer predicted: 1625126656
[INFO] Current addr: 2633967360, Transformer predicted: 6600395456
[INFO] Current addr: 2633967488, Transformer predicted: 2633967424
[INFO] Current addr: 2633967552, Transformer predicted: 2633967424
[INFO] Current addr: 2633967424, Transformer predicted: 7003591040
[INFO] Current addr: 6109024512, Transformer predicted: 5831066624
[INFO] Current addr: 6109024576, Transformer predicted: 1231686848
[INFO] Current addr: 6109024640, Transformer predicted: 2633966400
[INFO] Current addr: 6109024704, Transformer predicted: 6109026496
[INFO] Current addr: 6109024768, Transformer predicted: 3083472064
[INFO] Current addr: 5517113280, Transformer predicted: 5517113344
[INFO] Current addr: 3813653696, Transformer predicted: 6109025088
[INFO] Current addr: 5517113344, Transformer predicted: 5517113408
[INFO] Current addr: 5517113408, Transformer predicted: 5517113472
[INFO] Current addr: 5517113472, Transformer predicted: 5517113536
[INFO] Current addr: 5517113536, Transformer predicted: 6109027520
[INFO] Current addr: 3083470528, Transformer predicted: 5517114944
[INFO] Current addr: 6109024832, Transformer predicted: 6109024768
[INFO] Current addr: 6109024896, Transformer predicted: 6109024832

Warmup complete CPU 0 instructions: 10001 cycles: 2570 (Simulation time: 0 hr 0 min 5 sec) 

[INFO] Current addr: 5517114944, Transformer predicted: 6109025472
[INFO] Current addr: 7929169088, Transformer predicted: 3083470272
[INFO] Current addr: 3657332224, Transformer predicted: 6585078144
[INFO] Current addr: 2633967744, Transformer predicted: 2633967808
[INFO] Current addr: 2633967808, Transformer predicted: 2633967872
[INFO] Current addr: 2633967936, Transformer predicted: 2633968192
[INFO] Current addr: 2633968000, Transformer predicted: 2633967872
[INFO] Current addr: 2633967872, Transformer predicted: 2633968192
[INFO] Current addr: 2633968192, Transformer predicted: 2633968256
[INFO] Current addr: 2633968256, Transformer predicted: 2633968320
[INFO] Current addr: 7655523712, Transformer predicted: 2633968320
[INFO] Current addr: 2633968320, Transformer predicted: 1743894720
[INFO] Current addr: 1743894720, Transformer predicted: 2416377472
[INFO] Current addr: 268893824, Transformer predicted: 2416377536
[INFO] Current addr: 268893888, Transformer predicted: 8474182144
[INFO] Current addr: 7929168384, Transformer predicted: 2416377024
[INFO] Current addr: 268893376, Transformer predicted: 2416377088
[INFO] Current addr: 268893440, Transformer predicted: 7081077824
[INFO] Current addr: 7081077824, Transformer predicted: 2416377152
[INFO] Current addr: 268893504, Transformer predicted: 2416377088
[INFO] Current addr: 268893568, Transformer predicted: 2633968448
[INFO] Current addr: 2633968448, Transformer predicted: 2633968512
[INFO] Current addr: 2633968512, Transformer predicted: 7163570816
[INFO] Current addr: 7163570816, Transformer predicted: 7163570880
[INFO] Current addr: 7163570880, Transformer predicted: 2633968576
[INFO] Current addr: 2633968576, Transformer predicted: 7163570112
[INFO] Current addr: 7163570112, Transformer predicted: 7163570176
[INFO] Current addr: 2633968640, Transformer predicted: 7163570176
[INFO] Current addr: 7163570176, Transformer predicted: 7163570240
[INFO] Current addr: 7163570240, Transformer predicted: 2633968704
[INFO] Current addr: 2633968704, Transformer predicted: 7081078336
[INFO] Current addr: 7081078336, Transformer predicted: 1743895552
[INFO] Current addr: 1743895552, Transformer predicted: 4992478656
[INFO] Current addr: 4992478656, Transformer predicted: 7882644032
[INFO] Current addr: 1131637312, Transformer predicted: 7081078080
[INFO] Current addr: 3471373184, Transformer predicted: 7882644736
[INFO] Current addr: 7882644736, Transformer predicted: 7882644800
[INFO] Current addr: 7882644800, Transformer predicted: 8474181824
[INFO] Current addr: 7929168064, Transformer predicted: 4166504384
[INFO] Current addr: 7882644864, Transformer predicted: 7616001280
[INFO] Current addr: 7616001280, Transformer predicted: 7882644928
[INFO] Current addr: 7882644928, Transformer predicted: 3471373120
[INFO] Current addr: 3471373120, Transformer predicted: 3471373760
[INFO] Current addr: 3471373760, Transformer predicted: 1164128384
[INFO] Current addr: 1164128384, Transformer predicted: 1164128448
[INFO] Current addr: 1164128448, Transformer predicted: 7081078720
[INFO] Current addr: 7081078720, Transformer predicted: 1236043008
[INFO] Current addr: 5212120320, Transformer predicted: 1236043008
[INFO] Current addr: 1236043008, Transformer predicted: 2494969472
[INFO] Current addr: 2494971648, Transformer predicted: 1164128704
[INFO] Current addr: 5040481920, Transformer predicted: 4582955008
[INFO] Current addr: 7929169920, Transformer predicted: 3471373696
[INFO] Current addr: 1164128512, Transformer predicted: 8474183680
[INFO] Current addr: 3471373696, Transformer predicted: 6868107328
[INFO] Current addr: 6868107328, Transformer predicted: 6868107392
[INFO] Current addr: 6868107392, Transformer predicted: 8474182912
[INFO] Current addr: 7929169152, Transformer predicted: 7929169216
[INFO] Current addr: 2494971776, Transformer predicted: 7458952704
[INFO] Current addr: 2494971712, Transformer predicted: 7458952704
[INFO] Current addr: 6868107584, Transformer predicted: 6868107776
[INFO] Current addr: 4530009152, Transformer predicted: 7003292224
[INFO] Current addr: 6868107776, Transformer predicted: 7003292224
[INFO] Current addr: 6868107840, Transformer predicted: 7003292288
[INFO] Current addr: 7929167872, Transformer predicted: 3386491776
[INFO] Current addr: 6829180416, Transformer predicted: 6829180480
[INFO] Current addr: 6829180480, Transformer predicted: 6837117888
[INFO] Current addr: 6868108224, Transformer predicted: 6868108160
[INFO] Current addr: 782051328, Transformer predicted: 2929535040
[INFO] Current addr: 782051392, Transformer predicted: 2929535104
[INFO] Current addr: 782051456, Transformer predicted: 2929535168
[INFO] Current addr: 782051520, Transformer predicted: 6868107904
[INFO] Current addr: 6868107904, Transformer predicted: 6868107840
[INFO] Current addr: 2676041280, Transformer predicted: 7616001280
[INFO] Current addr: 6868107968, Transformer predicted: 2419192384
[INFO] Current addr: 2419192384, Transformer predicted: 5879034560
[INFO] Current addr: 5879034560, Transformer predicted: 5880790272
[INFO] Current addr: 5880790272, Transformer predicted: 1572579584
[INFO] Current addr: 1572579584, Transformer predicted: 5880790464
[INFO] Current addr: 5880790464, Transformer predicted: 5880790528
[INFO] Current addr: 5880790528, Transformer predicted: 6868107648
[INFO] Current addr: 6868107648, Transformer predicted: 6868107712
[INFO] Current addr: 6868107712, Transformer predicted: 3471373568
[INFO] Current addr: 3471373568, Transformer predicted: 7616001344
[INFO] Current addr: 7616001344, Transformer predicted: 1788343552
[INFO] Current addr: 1788343552, Transformer predicted: 3471373632
[INFO] Current addr: 3471373632, Transformer predicted: 3471373312
[INFO] Current addr: 3471373312, Transformer predicted: 1281715456
[INFO] Current addr: 1281715456, Transformer predicted: 1281715520
[INFO] Current addr: 1281715520, Transformer predicted: 1281715584
[INFO] Current addr: 1281715584, Transformer predicted: 3471373248
[INFO] Current addr: 3471373248, Transformer predicted: 7163569792
[INFO] Current addr: 7163569792, Transformer predicted: 7163569856
[INFO] Current addr: 7163569856, Transformer predicted: 7163569920
[INFO] Current addr: 7163569920, Transformer predicted: 4992478720
[INFO] Current addr: 4992478720, Transformer predicted: 8474182016
[INFO] Current addr: 7929168256, Transformer predicted: 3377435968
[INFO] Current addr: 7163569984, Transformer predicted: 3377436096
[INFO] Current addr: 156210624, Transformer predicted: 2419192320
[INFO] Current addr: 2419192320, Transformer predicted: 2419192448
[INFO] Current addr: 2098250368, Transformer predicted: 7163570048
[INFO] Current addr: 7163570048, Transformer predicted: 3813650560
[INFO] Current addr: 6109024384, Transformer predicted: 3813650560
[INFO] Current addr: 7163570432, Transformer predicted: 7163570496
[INFO] Current addr: 7163570496, Transformer predicted: 7163571840
[INFO] Current addr: 6458232832, Transformer predicted: 7163571456
[INFO] Current addr: 7163571456, Transformer predicted: 7163571776
[INFO] Current addr: 7163571776, Transformer predicted: 7163571840
[INFO] Current addr: 7163571840, Transformer predicted: 7081077696
[INFO] Current addr: 7081077696, Transformer predicted: 7163570560
[INFO] Current addr: 7163570560, Transformer predicted: 7163570624
[INFO] Current addr: 7163570624, Transformer predicted: 7163571712
[INFO] Current addr: 7163571712, Transformer predicted: 7163570688
[INFO] Current addr: 7163570688, Transformer predicted: 7163570752
[INFO] Current addr: 7163570752, Transformer predicted: 7163571904
[INFO] Current addr: 7163571904, Transformer predicted: 5212120384
[INFO] Current addr: 5212120384, Transformer predicted: 6603708928
[INFO] Current addr: 6603708928, Transformer predicted: 6603708992
[INFO] Current addr: 6603708992, Transformer predicted: 6603709120
[INFO] Current addr: 6603709120, Transformer predicted: 6603709056
[INFO] Current addr: 6603709056, Transformer predicted: 6603709184
[INFO] Current addr: 6603709184, Transformer predicted: 2416373824
[INFO] Current addr: 268890176, Transformer predicted: 2416373888
[INFO] Current addr: 268890240, Transformer predicted: 2416374016
[INFO] Current addr: 3471372288, Transformer predicted: 6603709248
[INFO] Current addr: 6603709248, Transformer predicted: 2416374016
[INFO] Current addr: 268890368, Transformer predicted: 2416374080
[INFO] Current addr: 268890432, Transformer predicted: 2416375232
[INFO] Current addr: 268891584, Transformer predicted: 3017438400
[INFO] Current addr: 4530009280, Transformer predicted: 2416375872
[INFO] Current addr: 268892224, Transformer predicted: 2416375360
[INFO] Current addr: 268891712, Transformer predicted: 2416375424
[INFO] Current addr: 5654277696, Transformer predicted: 3471372608
[INFO] Current addr: 268891776, Transformer predicted: 2416375488
[INFO] Current addr: 3471372608, Transformer predicted: 2416376832
[INFO] Current addr: 268891136, Transformer predicted: 5654277696
[INFO] Current addr: 268893184, Transformer predicted: 2416376896
[INFO] Current addr: 268893248, Transformer predicted: 3377436224
[INFO] Current addr: 156210752, Transformer predicted: 2416376960
[INFO] Current addr: 268893312, Transformer predicted: 2419193024
[INFO] Current addr: 2419193024, Transformer predicted: 2419193088
[INFO] Current addr: 2419193088, Transformer predicted: 2416377280
[INFO] Current addr: 268893632, Transformer predicted: 2416377344
[INFO] Current addr: 268893696, Transformer predicted: 2416377408
[INFO] Current addr: 268893760, Transformer predicted: 7655523456
[INFO] Current addr: 7655523456, Transformer predicted: 7655523520
[INFO] Current addr: 7655523520, Transformer predicted: 3813650496
[INFO] Current addr: 6109024320, Transformer predicted: 3083470848
[INFO] Current addr: 7655523584, Transformer predicted: 7655523648
[INFO] Current addr: 7655523648, Transformer predicted: 6109027456
[INFO] Current addr: 3813653632, Transformer predicted: 6109027520
[INFO] Current addr: 157941824, Transformer predicted: 1231685632
[INFO] Current addr: 3083470848, Transformer predicted: 6109027520
[INFO] Current addr: 3813653952, Transformer predicted: 6109027520
[INFO] Current addr: 157943616, Transformer predicted: 1231684928
[INFO] Current addr: 157943104, Transformer predicted: 1231685376
[INFO] Current addr: 3813652992, Transformer predicted: 6109026560
[INFO] Current addr: 5517112256, Transformer predicted: 5517112320
[INFO] Current addr: 5517112320, Transformer predicted: 1231685056
[INFO] Current addr: 157943232, Transformer predicted: 5517112384
[INFO] Current addr: 5517112384, Transformer predicted: 5816730368
[INFO] Current addr: 448021248, Transformer predicted: 5816730432
[INFO] Current addr: 448021312, Transformer predicted: 6109027392
[INFO] Current addr: 3813653568, Transformer predicted: 3813653248
[INFO] Current addr: 448022848, Transformer predicted: 5816732032
[INFO] Current addr: 448021440, Transformer predicted: 5517112448
[INFO] Current addr: 5517112448, Transformer predicted: 5517112512
[INFO] Current addr: 5517112512, Transformer predicted: 5517112768
[INFO] Current addr: 5517112768, Transformer predicted: 4456537344
[INFO] Current addr: 3813652928, Transformer predicted: 5517112384
[INFO] Current addr: 157943168, Transformer predicted: 1164128320
[INFO] Current addr: 3813653440, Transformer predicted: 3813651072
[INFO] Current addr: 448021504, Transformer predicted: 5816732672
[INFO] Current addr: 448023552, Transformer predicted: 3669249088
[INFO] Current addr: 448023616, Transformer predicted: 3669246848
[INFO] Current addr: 6502316032, Transformer predicted: 6502316096
[INFO] Current addr: 6502316096, Transformer predicted: 6502316544
[INFO] Current addr: 6502316544, Transformer predicted: 6502316992
[INFO] Current addr: 6502316608, Transformer predicted: 6502316992
[INFO] Current addr: 6502316992, Transformer predicted: 6502316416
[INFO] Current addr: 6502316416, Transformer predicted: 6502316992
[INFO] Current addr: 3657332352, Transformer predicted: 1231686336
[INFO] Current addr: 6502317120, Transformer predicted: 3669246016
[INFO] Current addr: 448020544, Transformer predicted: 4052001664
[INFO] Current addr: 448021376, Transformer predicted: 2189739456
[INFO] Current addr: 7524894144, Transformer predicted: 1851918912
[INFO] Current addr: 1851918912, Transformer predicted: 5564852224
[INFO] Current addr: 5564852224, Transformer predicted: 4914598336
[INFO] Current addr: 4914598336, Transformer predicted: 6335446592
[INFO] Current addr: 6335446592, Transformer predicted: 5564852288
[INFO] Current addr: 5564852288, Transformer predicted: 4276782400
[INFO] Current addr: 4276782400, Transformer predicted: 3013262784
[INFO] Current addr: 3013262784, Transformer predicted: 3013262720
[INFO] Current addr: 3013262720, Transformer predicted: 5352997696
[INFO] Current addr: 5564852352, Transformer predicted: 4210662016
[INFO] Current addr: 4210662016, Transformer predicted: 2670367488
[INFO] Current addr: 2670367488, Transformer predicted: 3438492480
[INFO] Current addr: 3438492480, Transformer predicted: 1747816384
[INFO] Current addr: 1747816384, Transformer predicted: 1479359680
[INFO] Current addr: 405617856, Transformer predicted: 3438492544
[INFO] Current addr: 3438492544, Transformer predicted: 5879035456
[INFO] Current addr: 5879035456, Transformer predicted: 1845408512
[INFO] Current addr: 1845408512, Transformer predicted: 3438492608
[INFO] Current addr: 3438492608, Transformer predicted: 2676041344
[INFO] Current addr: 2676041344, Transformer predicted: 2676041536
[INFO] Current addr: 4400613184, Transformer predicted: 5205212672
[INFO] Current addr: 5205212672, Transformer predicted: 3438492416
[INFO] Current addr: 5419252480, Transformer predicted: 1654177920
[INFO] Current addr: 1654177920, Transformer predicted: 5041650624
[INFO] Current addr: 4647386048, Transformer predicted: 3438492480
[INFO] Current addr: 5419252544, Transformer predicted: 4276783168
[INFO] Current addr: 4276783168, Transformer predicted: 1851918784
[INFO] Current addr: 1851918784, Transformer predicted: 3647721984
[INFO] Current addr: 3647721984, Transformer predicted: 8587978688
[INFO] Current addr: 8587978688, Transformer predicted: 3415891648
[INFO] Current addr: 3415891648, Transformer predicted: 3647722048
[INFO] Current addr: 3647722048, Transformer predicted: 6112711360
[INFO] Current addr: 6112711360, Transformer predicted: 2044114304
[INFO] Current addr: 2044114304, Transformer predicted: 3654352448
[INFO] Current addr: 433126976, Transformer predicted: 3654352512
[INFO] Current addr: 433127040, Transformer predicted: 2971156544
[INFO] Current addr: 2971156544, Transformer predicted: 6802089088
[INFO] Current addr: 6802089088, Transformer predicted: 3654352576
[INFO] Current addr: 433127104, Transformer predicted: 6093667456
[INFO] Current addr: 6093667456, Transformer predicted: 6515974336
[INFO] Current addr: 6515974336, Transformer predicted: 3654352640
[INFO] Current addr: 433127168, Transformer predicted: 3067446464
[INFO] Current addr: 3067446464, Transformer predicted: 3330122560
[INFO] Current addr: 3330122560, Transformer predicted: 2898558080
[INFO] Current addr: 751074432, Transformer predicted: 2676041408
[INFO] Current addr: 2676041408, Transformer predicted: 8109217344
[INFO] Current addr: 8109217344, Transformer predicted: 2044113152
[INFO] Current addr: 2044113152, Transformer predicted: 2898558144
[INFO] Current addr: 751074496, Transformer predicted: 2219059136
[INFO] Current addr: 2219059136, Transformer predicted: 6055456192
[INFO] Current addr: 6055456192, Transformer predicted: 2898558208
[INFO] Current addr: 751074560, Transformer predicted: 3662315264
[INFO] Current addr: 3662315264, Transformer predicted: 3762742976
[INFO] Current addr: 3762742976, Transformer predicted: 7217128448
[INFO] Current addr: 7217128448, Transformer predicted: 7968325056
[INFO] Current addr: 7968325056, Transformer predicted: 5312100672
[INFO] Current addr: 5312100672, Transformer predicted: 8034157120
[INFO] Current addr: 1663010240, Transformer predicted: 2416373952
[INFO] Current addr: 268890304, Transformer predicted: 5654277760
[INFO] Current addr: 5654277760, Transformer predicted: 6112711424
[INFO] Current addr: 6112711424, Transformer predicted: 6299005568
[INFO] Current addr: 6299005568, Transformer predicted: 6299005504
[INFO] Current addr: 6299005504, Transformer predicted: 7217128512
[INFO] Current addr: 7217128512, Transformer predicted: 7217128576
[INFO] Current addr: 3471373888, Transformer predicted: 3648008384
[INFO] Current addr: 3648008384, Transformer predicted: 3648008448
[INFO] Current addr: 3648008448, Transformer predicted: 3648008512
[INFO] Current addr: 3648008512, Transformer predicted: 3648008576
[INFO] Current addr: 3648008576, Transformer predicted: 3648008768
[INFO] Current addr: 3648008768, Transformer predicted: 1998139456
[INFO] Current addr: 1998139456, Transformer predicted: 1998139520
[INFO] Current addr: 1998139520, Transformer predicted: 7081077760
[INFO] Current addr: 7081077760, Transformer predicted: 1802783616
[INFO] Current addr: 1802783616, Transformer predicted: 4697895936
[INFO] Current addr: 4697895936, Transformer predicted: 1802783680
[INFO] Current addr: 1802783680, Transformer predicted: 1802783744
[INFO] Current addr: 1802783744, Transformer predicted: 1802784576
[INFO] Current addr: 1802784576, Transformer predicted: 7003594240
[INFO] Current addr: 7003594240, Transformer predicted: 1625126336
[INFO] Current addr: 7569551360, Transformer predicted: 7569553216
[INFO] Current addr: 7569553216, Transformer predicted: 1625126528
[INFO] Current addr: 1625126528, Transformer predicted: 1625126592
[INFO] Current addr: 1625126592, Transformer predicted: 1625126656
[INFO] Current addr: 1625126656, Transformer predicted: 1625126848
[INFO] Current addr: 1625126848, Transformer predicted: 7003591744
[INFO] Current addr: 7003591744, Transformer predicted: 1625126720
[INFO] Current addr: 1625126720, Transformer predicted: 7003591680
[INFO] Current addr: 7003591680, Transformer predicted: 1625127232
[INFO] Current addr: 1625127232, Transformer predicted: 1625127296
[INFO] Current addr: 1625127296, Transformer predicted: 1625126784
[INFO] Current addr: 1625126784, Transformer predicted: 4774417856
[INFO] Current addr: 1802783808, Transformer predicted: 7569551424
[INFO] Current addr: 4774417856, Transformer predicted: 1802783808
[INFO] Current addr: 7569551424, Transformer predicted: 7569553024
[INFO] Current addr: 7569553024, Transformer predicted: 1625125696
[INFO] Current addr: 1625125696, Transformer predicted: 1625125760
[INFO] Current addr: 1625125760, Transformer predicted: 4616847488
[INFO] Current addr: 1625125888, Transformer predicted: 4616847488
[INFO] Current addr: 4616847488, Transformer predicted: 1754589376
[INFO] Current addr: 1754589376, Transformer predicted: 1754589440
[INFO] Current addr: 1754589440, Transformer predicted: 5623485504
[INFO] Current addr: 1131635776, Transformer predicted: 1754589504
[INFO] Current addr: 1754589504, Transformer predicted: 7613069376
[INFO] Current addr: 96876608, Transformer predicted: 6240532864
[INFO] Current addr: 2617440640, Transformer predicted: 3971878720
[INFO] Current addr: 3971878720, Transformer predicted: 7998994944
[INFO] Current addr: 1112603136, Transformer predicted: 1112603200
[INFO] Current addr: 1112603200, Transformer predicted: 1112603264
[INFO] Current addr: 1112603264, Transformer predicted: 1112603328
[INFO] Current addr: 1112603328, Transformer predicted: 1754589568
[INFO] Current addr: 1754589568, Transformer predicted: 7836559360
[INFO] Current addr: 7836559360, Transformer predicted: 5948176256
[INFO] Current addr: 5948176256, Transformer predicted: 5948176320
[INFO] Current addr: 5948176320, Transformer predicted: 5948176384
[INFO] Current addr: 4616847552, Transformer predicted: 7622299136
[INFO] Current addr: 1625125824, Transformer predicted: 7622299264
[INFO] Current addr: 7622299264, Transformer predicted: 7622299392
[INFO] Current addr: 7622299392, Transformer predicted: 7569551488
[INFO] Current addr: 7569551488, Transformer predicted: 7569551552
[INFO] Current addr: 7569551552, Transformer predicted: 7569552704
[INFO] Current addr: 7569552704, Transformer predicted: 7569552640
[INFO] Current addr: 7569552768, Transformer predicted: 7569551616
[INFO] Current addr: 7569551616, Transformer predicted: 7569552640
[INFO] Current addr: 7569552640, Transformer predicted: 1802784512
[INFO] Current addr: 1802784512, Transformer predicted: 1998139584
[INFO] Current addr: 1998139584, Transformer predicted: 7081078400
[INFO] Current addr: 7081078400, Transformer predicted: 1998139648
[INFO] Current addr: 1998139648, Transformer predicted: 3648008832
[INFO] Current addr: 3648008832, Transformer predicted: 3648008640
[INFO] Current addr: 3648008640, Transformer predicted: 1625125440
[INFO] Current addr: 1625125440, Transformer predicted: 1625125504
[INFO] Current addr: 1625125504, Transformer predicted: 3648008704
[INFO] Current addr: 3648008704, Transformer predicted: 6985210368
[INFO] Current addr: 6985210368, Transformer predicted: 6985210432
[INFO] Current addr: 6985210432, Transformer predicted: 1743896192
[INFO] Current addr: 1743896192, Transformer predicted: 6093666432
[INFO] Current addr: 6093666432, Transformer predicted: 5880787968
[INFO] Current addr: 5880787968, Transformer predicted: 5880788032
[INFO] Current addr: 5880788032, Transformer predicted: 5880788608
[INFO] Current addr: 5880788608, Transformer predicted: 5880788672
[INFO] Current addr: 5880788672, Transformer predicted: 7003591808
[INFO] Current addr: 7003591808, Transformer predicted: 6112711936
[INFO] Current addr: 6112711936, Transformer predicted: 7003590720
[INFO] Current addr: 7003590720, Transformer predicted: 1743896000
[INFO] Current addr: 1743896000, Transformer predicted: 7929168576
[INFO] Current addr: 8474182336, Transformer predicted: 3471373824
[INFO] Current addr: 3471373824, Transformer predicted: 3471374336
[INFO] Current addr: 3471374336, Transformer predicted: 3471374336
[INFO] Current addr: 7882643456, Transformer predicted: 7882643520
[INFO] Current addr: 7882643520, Transformer predicted: 7882643584
[INFO] Current addr: 7882643584, Transformer predicted: 7882643648
[INFO] Current addr: 2494971520, Transformer predicted: 3330122560
[INFO] Current addr: 7882643648, Transformer predicted: 5040483968
[INFO] Current addr: 7882643840, Transformer predicted: 7882643712
[INFO] Current addr: 7882643712, Transformer predicted: 7003590848
[INFO] Current addr: 7003590848, Transformer predicted: 6985208448
[INFO] Current addr: 6985208448, Transformer predicted: 6985208512
[INFO] Current addr: 6985208512, Transformer predicted: 7081077632
[INFO] Current addr: 7081077632, Transformer predicted: 6985208384
[INFO] Current addr: 6109024256, Transformer predicted: 6985208384
[INFO] Current addr: 4530009536, Transformer predicted: 6985209856
[INFO] Current addr: 6985209856, Transformer predicted: 6985209920
[INFO] Current addr: 6985209920, Transformer predicted: 6985210304
[INFO] Current addr: 6985210304, Transformer predicted: 5356506560
[INFO] Current addr: 1625126016, Transformer predicted: 1625126080
[INFO] Current addr: 1625126080, Transformer predicted: 1625126144
[INFO] Current addr: 1625126144, Transformer predicted: 1625126272
[INFO] Current addr: 1625126272, Transformer predicted: 1625126336
[INFO] Current addr: 1625126336, Transformer predicted: 5880790592
[INFO] Current addr: 5880790592, Transformer predicted: 7376621184
[INFO] Current addr: 7376621184, Transformer predicted: 5665879040
[INFO] Current addr: 5665879040, Transformer predicted: 5880790656
[INFO] Current addr: 5880790656, Transformer predicted: 6985209984
[INFO] Current addr: 6985209984, Transformer predicted: 7003590976
[INFO] Current addr: 7003590976, Transformer predicted: 1743896064
[INFO] Current addr: 1743896064, Transformer predicted: 1743896128
[INFO] Current addr: 1743896128, Transformer predicted: 6985208640
[INFO] Current addr: 6985208640, Transformer predicted: 6129127040
[INFO] Current addr: 4530009600, Transformer predicted: 6374249280
[INFO] Current addr: 6129127040, Transformer predicted: 5022316032
[INFO] Current addr: 6374249280, Transformer predicted: 7929168512
[INFO] Current addr: 8474182272, Transformer predicted: 6374249408
[INFO] Current addr: 7882643776, Transformer predicted: 5040484032
[INFO] Current addr: 2494971584, Transformer predicted: 2419192448
[INFO] Current addr: 7882643968, Transformer predicted: 7882644032
[INFO] Current addr: 7882644032, Transformer predicted: 2419192448
[INFO] Current addr: 2419192448, Transformer predicted: 1743895616
[INFO] Current addr: 1743895616, Transformer predicted: 2438779328
[INFO] Current addr: 2438779328, Transformer predicted: 3017438400
[INFO] Current addr: 3017438400, Transformer predicted: 7604506048
[INFO] Current addr: 2494971328, Transformer predicted: 2494971392
[INFO] Current addr: 1743895680, Transformer predicted: 1743895744
[INFO] Current addr: 1743895744, Transformer predicted: 5880788608
[INFO] Current addr: 5880788736, Transformer predicted: 1743894656
[INFO] Current addr: 7003592000, Transformer predicted: 5880788992
[INFO] Current addr: 5880788992, Transformer predicted: 5880789376
[INFO] Current addr: 5880789376, Transformer predicted: 5880789568
[INFO] Current addr: 5880789568, Transformer predicted: 4456537216
[INFO] Current addr: 4456537216, Transformer predicted: 2270470464
[INFO] Current addr: 2270470464, Transformer predicted: 3971878656
[INFO] Current addr: 3971878656, Transformer predicted: 2270470528
[INFO] Current addr: 2270470528, Transformer predicted: 2270470592
[INFO] Current addr: 2270470592, Transformer predicted: 1112600640
[INFO] Current addr: 1112600640, Transformer predicted: 1112600704
[INFO] Current addr: 1112600704, Transformer predicted: 1112601472
[INFO] Current addr: 1112601472, Transformer predicted: 1112601536
[INFO] Current addr: 1112601536, Transformer predicted: 7836559232
[INFO] Current addr: 7836559232, Transformer predicted: 2270470656
[INFO] Current addr: 2270470656, Transformer predicted: 5880789632
[INFO] Current addr: 5880789632, Transformer predicted: 5880789440
[INFO] Current addr: 5880789440, Transformer predicted: 7003591872
[INFO] Current addr: 7003591872, Transformer predicted: 5880789888
[INFO] Current addr: 5880789888, Transformer predicted: 5416624000
[INFO] Current addr: 5416624000, Transformer predicted: 4205279872
[INFO] Current addr: 4205279872, Transformer predicted: 4205279936
[INFO] Current addr: 4205279936, Transformer predicted: 4205280000
[INFO] Current addr: 4205280000, Transformer predicted: 4205280064
[INFO] Current addr: 4205280064, Transformer predicted: 7569553984
[INFO] Current addr: 6433421824, Transformer predicted: 6995240832
[INFO] Current addr: 552789888, Transformer predicted: 6995240896
[INFO] Current addr: 552789952, Transformer predicted: 5416624064
[INFO] Current addr: 5416624064, Transformer predicted: 5451603392
[INFO] Current addr: 6458236352, Transformer predicted: 5451603456
[INFO] Current addr: 6458236416, Transformer predicted: 2146491968
[INFO] Current addr: 6458236480, Transformer predicted: 5451603904
[INFO] Current addr: 6458236864, Transformer predicted: 7376621120
[INFO] Current addr: 7376621120, Transformer predicted: 7446667520
[INFO] Current addr: 1004216576, Transformer predicted: 7446667328
[INFO] Current addr: 1004216384, Transformer predicted: 7446667392
[INFO] Current addr: 1004216448, Transformer predicted: 5416623936
[INFO] Current addr: 5416623936, Transformer predicted: 6995239168
[INFO] Current addr: 552788224, Transformer predicted: 6995239232
[INFO] Current addr: 552788288, Transformer predicted: 6995239104
[INFO] Current addr: 3017437184, Transformer predicted: 6868108736
[INFO] Current addr: 6868108736, Transformer predicted: 6868108800
[INFO] Current addr: 6868108800, Transformer predicted: 6868108864
[INFO] Current addr: 6868108864, Transformer predicted: 6129126656
[INFO] Current addr: 6129126656, Transformer predicted: 6868109184
[INFO] Current addr: 6868109184, Transformer predicted: 6868109056
[INFO] Current addr: 6868109056, Transformer predicted: 5815993088
[INFO] Current addr: 5815993088, Transformer predicted: 4324475776
[INFO] Current addr: 4324475776, Transformer predicted: 6515451968
[INFO] Current addr: 6515451968, Transformer predicted: 6515452032
[INFO] Current addr: 6515452032, Transformer predicted: 6515452096
[INFO] Current addr: 6515452096, Transformer predicted: 6515452160
[INFO] Current addr: 6515452160, Transformer predicted: 5815993024
[INFO] Current addr: 5815993024, Transformer predicted: 2049763072
[INFO] Current addr: 2049763072, Transformer predicted: 6515452800
[INFO] Current addr: 6515452800, Transformer predicted: 6515452864
[INFO] Current addr: 6515452864, Transformer predicted: 6515452736
[INFO] Current addr: 6515452288, Transformer predicted: 6515452352
[INFO] Current addr: 6515452352, Transformer predicted: 3572816704
[INFO] Current addr: 3237272384, Transformer predicted: 3495731136
[INFO] Current addr: 3495731136, Transformer predicted: 8111448256
[INFO] Current addr: 8111448256, Transformer predicted: 2053200064
[INFO] Current addr: 2053200064, Transformer predicted: 2053200000
[INFO] Current addr: 2053200000, Transformer predicted: 8469213056
[INFO] Current addr: 8469213056, Transformer predicted: 6756779712
[INFO] Current addr: 6756779712, Transformer predicted: 6756779648
[INFO] Current addr: 6756779648, Transformer predicted: 6729586368
[INFO] Current addr: 6729586368, Transformer predicted: 1591286272
[INFO] Current addr: 1591286272, Transformer predicted: 4451529536
[INFO] Current addr: 156562240, Transformer predicted: 6515452416
[INFO] Current addr: 6515452416, Transformer predicted: 6515452480
[INFO] Current addr: 6515452480, Transformer predicted: 6515452544
[INFO] Current addr: 6515452544, Transformer predicted: 6868109120
[INFO] Current addr: 6868109120, Transformer predicted: 5665879168
[INFO] Current addr: 5665879168, Transformer predicted: 6868108992
[INFO] Current addr: 6868108992, Transformer predicted: 6868108928
[INFO] Current addr: 6868108928, Transformer predicted: 3017437312
[INFO] Current addr: 3017437312, Transformer predicted: 8543865536
[INFO] Current addr: 8543865536, Transformer predicted: 6646805120
[INFO] Current addr: 204354176, Transformer predicted: 6868109056
[INFO] Current addr: 3017437248, Transformer predicted: 3017437376
[INFO] Current addr: 3017437376, Transformer predicted: 4499245760
[INFO] Current addr: 6129126592, Transformer predicted: 4444769792
[INFO] Current addr: 4444769792, Transformer predicted: 6412444864
[INFO] Current addr: 1768776512, Transformer predicted: 6412444864
[INFO] Current addr: 6412444864, Transformer predicted: 7155171392
[INFO] Current addr: 7155171392, Transformer predicted: 6412444800
[INFO] Current addr: 6412444800, Transformer predicted: 6412444544
[INFO] Current addr: 6412444544, Transformer predicted: 6412443712
[INFO] Current addr: 6412443712, Transformer predicted: 6672581248
[INFO] Current addr: 6672581248, Transformer predicted: 3008750272
[INFO] Current addr: 861266624, Transformer predicted: 6646804928
[INFO] Current addr: 204353984, Transformer predicted: 3017437504
[INFO] Current addr: 3017437504, Transformer predicted: 4052000896
[INFO] Current addr: 4052000896, Transformer predicted: 3017437440
[INFO] Current addr: 3017437440, Transformer predicted: 3017437568
[INFO] Current addr: 3017437568, Transformer predicted: 5815993152
[INFO] Current addr: 5815993152, Transformer predicted: 4444770240
[INFO] Current addr: 4444770240, Transformer predicted: 7345350336
[INFO] Current addr: 7345350336, Transformer predicted: 3303836736
[INFO] Current addr: 3303836736, Transformer predicted: 1177678272
[INFO] Current addr: 1177678272, Transformer predicted: 4324475200
[INFO] Current addr: 4324475200, Transformer predicted: 4324475264
[INFO] Current addr: 4324475264, Transformer predicted: 4324475328
[INFO] Current addr: 5760559168, Transformer predicted: 3017438272
[INFO] Current addr: 3017438272, Transformer predicted: 7896897280
[INFO] Current addr: 7896897280, Transformer predicted: 3017438336
[INFO] Current addr: 3017438336, Transformer predicted: 3017438016
[INFO] Current addr: 3017438016, Transformer predicted: 6868109888
[INFO] Current addr: 6868109888, Transformer predicted: 6868109952
[INFO] Current addr: 6868109952, Transformer predicted: 7081078464
[INFO] Current addr: 7081078464, Transformer predicted: 3017437760
[INFO] Current addr: 3017437760, Transformer predicted: 3017437824
[INFO] Current addr: 3017437824, Transformer predicted: 6995239040
[INFO] Current addr: 552788096, Transformer predicted: 6995239104
[INFO] Current addr: 552788160, Transformer predicted: 3017437888
[INFO] Current addr: 3017437888, Transformer predicted: 7446668224
[INFO] Current addr: 1004217280, Transformer predicted: 7446668416
[INFO] Current addr: 1004217472, Transformer predicted: 7446669440
[INFO] Current addr: 1004218496, Transformer predicted: 7446669504
[INFO] Current addr: 1004218560, Transformer predicted: 7446668608
[INFO] Current addr: 1004217664, Transformer predicted: 3151701376
[INFO] Current addr: 1004217728, Transformer predicted: 7479583040
[INFO] Current addr: 7479583040, Transformer predicted: 6374249344
[INFO] Current addr: 6374249344, Transformer predicted: 3151701952
[INFO] Current addr: 1004218304, Transformer predicted: 6096057984
[INFO] Current addr: 727348864, Transformer predicted: 6096058112
[INFO] Current addr: 727348992, Transformer predicted: 5022316352
[INFO] Current addr: 727349056, Transformer predicted: 5022316416
[INFO] Current addr: 727349120, Transformer predicted: 8017128000
[INFO] Current addr: 727349184, Transformer predicted: 8017128128
[INFO] Current addr: 8017128000, Transformer predicted: 8017128064
[INFO] Current addr: 8017128064, Transformer predicted: 5022316480
[INFO] Current addr: 8017128128, Transformer predicted: 8017128192
[INFO] Current addr: 8017128192, Transformer predicted: 5022316224
[INFO] Current addr: 727348928, Transformer predicted: 5299185664
[INFO] Current addr: 1004218368, Transformer predicted: 7446668800
[INFO] Current addr: 1004217856, Transformer predicted: 3017437632
[INFO] Current addr: 3017437632, Transformer predicted: 3017438080
[INFO] Current addr: 3017438080, Transformer predicted: 1281712512
[INFO] Current addr: 1281712512, Transformer predicted: 1281712576
[INFO] Current addr: 1281712576, Transformer predicted: 5299185024
[INFO] Current addr: 1281712832, Transformer predicted: 3017438016
[INFO] Current addr: 4530008896, Transformer predicted: 8563115392
[INFO] Current addr: 8563115392, Transformer predicted: 8563115520
[INFO] Current addr: 8563115520, Transformer predicted: 1281713536
[INFO] Current addr: 1281713536, Transformer predicted: 1281712960
[INFO] Current addr: 1281712960, Transformer predicted: 6240531008
[INFO] Current addr: 6240531008, Transformer predicted: 7081078656
[INFO] Current addr: 7081078656, Transformer predicted: 1408043840
[INFO] Current addr: 334302016, Transformer predicted: 1408043904
[INFO] Current addr: 334302080, Transformer predicted: 1281713024
[INFO] Current addr: 1281713024, Transformer predicted: 2170425536
[INFO] Current addr: 2170425536, Transformer predicted: 1281713088
[INFO] Current addr: 1281713088, Transformer predicted: 1281713728
[INFO] Current addr: 1281713728, Transformer predicted: 1281713792
[INFO] Current addr: 1281713792, Transformer predicted: 6240531072
[INFO] Current addr: 6240531072, Transformer predicted: 6240531136
[INFO] Current addr: 6240531136, Transformer predicted: 7081076992
[INFO] Current addr: 7081076992, Transformer predicted: 1281713856
[INFO] Current addr: 1281713856, Transformer predicted: 1281713920
[INFO] Current addr: 1281713920, Transformer predicted: 1281713984
[INFO] Current addr: 1281713984, Transformer predicted: 4629267072
[INFO] Current addr: 334299776, Transformer predicted: 1408041664
[INFO] Current addr: 334299840, Transformer predicted: 1281714048
[INFO] Current addr: 1281714048, Transformer predicted: 1281714112
[INFO] Current addr: 1281714112, Transformer predicted: 1281714176
[INFO] Current addr: 1281714176, Transformer predicted: 1281714240
[INFO] Current addr: 1281714240, Transformer predicted: 6829180544
[INFO] Current addr: 6829180544, Transformer predicted: 1281714432
[INFO] Current addr: 1281714304, Transformer predicted: 3471374592
[INFO] Current addr: 3471374592, Transformer predicted: 5665879040
[INFO] Current addr: 4530009088, Transformer predicted: 6829180672
[INFO] Current addr: 6829180672, Transformer predicted: 6016506624
[INFO] Current addr: 647797504, Transformer predicted: 2103079680
[INFO] Current addr: 4530008832, Transformer predicted: 6829180928
[INFO] Current addr: 6829180928, Transformer predicted: 6829180864
[INFO] Current addr: 6829180864, Transformer predicted: 1281714368
[INFO] Current addr: 1281714368, Transformer predicted: 1281714432
[INFO] Current addr: 1281714432, Transformer predicted: 8587978752
[INFO] Current addr: 8587978752, Transformer predicted: 1281714496
[INFO] Current addr: 1281714496, Transformer predicted: 1281712768
[INFO] Current addr: 1281712768, Transformer predicted: 3471375040
[INFO] Current addr: 3471375040, Transformer predicted: 3471374784
[INFO] Current addr: 3471374784, Transformer predicted: 3471374848
[INFO] Current addr: 3471374848, Transformer predicted: 7446669568
[INFO] Current addr: 1004218624, Transformer predicted: 3471374912
[INFO] Current addr: 3471374912, Transformer predicted: 5271429504
[INFO] Current addr: 5271429504, Transformer predicted: 5271429568
[INFO] Current addr: 5271429568, Transformer predicted: 8040720448
[INFO] Current addr: 8040720448, Transformer predicted: 8040720512
[INFO] Current addr: 8040720512, Transformer predicted: 8040720576
[INFO] Current addr: 8040720576, Transformer predicted: 5271429632
[INFO] Current addr: 5271429632, Transformer predicted: 3471374656
[INFO] Current addr: 3471374656, Transformer predicted: 4629266752
[INFO] Current addr: 334299456, Transformer predicted: 4629266816
[INFO] Current addr: 334299520, Transformer predicted: 4205280128
[INFO] Current addr: 4205280128, Transformer predicted: 3471374976
[INFO] Current addr: 3471374976, Transformer predicted: 3471375040
[INFO] Current addr: 7446380544, Transformer predicted: 7446380608
[INFO] Current addr: 7446380608, Transformer predicted: 7446380672
[INFO] Current addr: 7446380672, Transformer predicted: 7569551936
[INFO] Current addr: 7569551936, Transformer predicted: 7569552000
[INFO] Current addr: 7569552000, Transformer predicted: 1802783872
[INFO] Current addr: 1802783872, Transformer predicted: 1802783936
[INFO] Current addr: 1802783936, Transformer predicted: 1802784000
[INFO] Current addr: 1802784000, Transformer predicted: 1802784064
[INFO] Current addr: 1802784064, Transformer predicted: 7446380736
[INFO] Current addr: 7446380736, Transformer predicted: 8563115136
[INFO] Current addr: 8563115136, Transformer predicted: 3471374528
[INFO] Current addr: 3471374528, Transformer predicted: 3471375232
[INFO] Current addr: 3471375232, Transformer predicted: 3471375296
[INFO] Current addr: 3471375296, Transformer predicted: 8563114624
[INFO] Current addr: 8563114624, Transformer predicted: 8563114560
[INFO] Current addr: 8563114560, Transformer predicted: 8563114816
[INFO] Current addr: 8563114816, Transformer predicted: 7756535552
[INFO] Current addr: 240342784, Transformer predicted: 3461568320
[INFO] Current addr: 240342848, Transformer predicted: 8563114880
[INFO] Current addr: 8563114880, Transformer predicted: 7756535680
[INFO] Current addr: 240342912, Transformer predicted: 7756536320
[INFO] Current addr: 240343552, Transformer predicted: 7756536384
[INFO] Current addr: 240343616, Transformer predicted: 2481786816
[INFO] Current addr: 334303168, Transformer predicted: 7756535808
[INFO] Current addr: 6240530432, Transformer predicted: 6240530496
[INFO] Current addr: 6240530496, Transformer predicted: 2406060672
[INFO] Current addr: 2406060672, Transformer predicted: 2406060736
[INFO] Current addr: 2406060736, Transformer predicted: 2406060800
[INFO] Current addr: 2406060800, Transformer predicted: 2387826624
[INFO] Current addr: 240342976, Transformer predicted: 2387826688
[INFO] Current addr: 240343040, Transformer predicted: 2387826752
[INFO] Current addr: 240343104, Transformer predicted: 2387826816
[INFO] Current addr: 240343168, Transformer predicted: 2387826880
[INFO] Current addr: 240343232, Transformer predicted: 7756536064
[INFO] Current addr: 240343296, Transformer predicted: 8563115200
[INFO] Current addr: 8563115200, Transformer predicted: 2387827392
[INFO] Current addr: 240343744, Transformer predicted: 8563114944
[INFO] Current addr: 8563114944, Transformer predicted: 8563114752
[INFO] Current addr: 8563114752, Transformer predicted: 4942764544
[INFO] Current addr: 8563114432, Transformer predicted: 4942764544
[INFO] Current addr: 647797248, Transformer predicted: 4942764608
[INFO] Current addr: 647797312, Transformer predicted: 3330121984
[INFO] Current addr: 3330121984, Transformer predicted: 8163990400
[INFO] Current addr: 647797632, Transformer predicted: 4942764864
[INFO] Current addr: 647797568, Transformer predicted: 7846492288
[INFO] Current addr: 7846492288, Transformer predicted: 6603709312
[INFO] Current addr: 6603709312, Transformer predicted: 6603709376
[INFO] Current addr: 6603709376, Transformer predicted: 6603709440
[INFO] Current addr: 6603709440, Transformer predicted: 2416374144
[INFO] Current addr: 268890496, Transformer predicted: 6603709504
[INFO] Current addr: 6603709504, Transformer predicted: 6603710080
[INFO] Current addr: 6603710080, Transformer predicted: 6603710144
[INFO] Current addr: 6603710144, Transformer predicted: 4456535360
[INFO] Current addr: 4456535360, Transformer predicted: 4456535424
[INFO] Current addr: 4456535424, Transformer predicted: 4456535488
[INFO] Current addr: 4456535488, Transformer predicted: 4456535680
[INFO] Current addr: 4456535680, Transformer predicted: 4456535744
[INFO] Current addr: 4456535744, Transformer predicted: 4456535872
[INFO] Current addr: 4456535872, Transformer predicted: 4456535936
[INFO] Current addr: 4456535936, Transformer predicted: 4456536000
[INFO] Current addr: 647798208, Transformer predicted: 3657332160
[INFO] Current addr: 3657332160, Transformer predicted: 4456536128
[INFO] Current addr: 4456536128, Transformer predicted: 4456536192
[INFO] Current addr: 4456536192, Transformer predicted: 4942765376
[INFO] Current addr: 647798080, Transformer predicted: 4942765440
[INFO] Current addr: 647798144, Transformer predicted: 4456535616
[INFO] Current addr: 4456535616, Transformer predicted: 6603709760
[INFO] Current addr: 6603709760, Transformer predicted: 5654277824
[INFO] Current addr: 5654277824, Transformer predicted: 8563114304
[INFO] Current addr: 8563114304, Transformer predicted: 8563115008
[INFO] Current addr: 8563115008, Transformer predicted: 7671528384
[INFO] Current addr: 7671528384, Transformer predicted: 3647722112
[INFO] Current addr: 3647722112, Transformer predicted: 2898558272
[INFO] Current addr: 751074624, Transformer predicted: 7217128576
[INFO] Current addr: 7217128576, Transformer predicted: 8563114688
[INFO] Current addr: 8563114688, Transformer predicted: 8563115072
[INFO] Current addr: 8563115072, Transformer predicted: 8563115584
[INFO] Current addr: 8563115584, Transformer predicted: 3017440000
[INFO] Current addr: 3017440000, Transformer predicted: 3017439936
[INFO] Current addr: 3017439936, Transformer predicted: 3017438592
[INFO] Current addr: 3017438592, Transformer predicted: 3017438656
[INFO] Current addr: 3017438656, Transformer predicted: 3017438528
[INFO] Current addr: 3017438528, Transformer predicted: 3017438720
[INFO] Current addr: 3017438720, Transformer predicted: 6129126528
[INFO] Current addr: 6129126528, Transformer predicted: 3017438848
[INFO] Current addr: 3017438848, Transformer predicted: 3017438784
[INFO] Current addr: 3017438784, Transformer predicted: 3017438912
[INFO] Current addr: 3017438912, Transformer predicted: 6129126464
[INFO] Current addr: 6129126464, Transformer predicted: 5815993216
[INFO] Current addr: 5815993216, Transformer predicted: 3017439040
[INFO] Current addr: 3017439040, Transformer predicted: 3017439104
[INFO] Current addr: 3017439104, Transformer predicted: 3017438976
[INFO] Current addr: 3017438976, Transformer predicted: 3017439168
[INFO] Current addr: 3017439168, Transformer predicted: 6316448960
[INFO] Current addr: 6316448960, Transformer predicted: 5960635328
[INFO] Current addr: 5960635328, Transformer predicted: 6149260224
[INFO] Current addr: 780551104, Transformer predicted: 5075518464
[INFO] Current addr: 780551168, Transformer predicted: 5760558016
[INFO] Current addr: 5760558016, Transformer predicted: 3017439872
[INFO] Current addr: 3017439872, Transformer predicted: 7896897536
[INFO] Current addr: 7896897536, Transformer predicted: 3017439552
[INFO] Current addr: 3017439552, Transformer predicted: 3017439296
[INFO] Current addr: 3017439296, Transformer predicted: 3017439360
[INFO] Current addr: 3017439360, Transformer predicted: 3017439424
[INFO] Current addr: 3017439424, Transformer predicted: 3017439232
[INFO] Current addr: 3017439232, Transformer predicted: 3017439616
[INFO] Current addr: 3017439616, Transformer predicted: 3017437760
[INFO] Current addr: 4530008640, Transformer predicted: 7817208704
[INFO] Current addr: 7817208704, Transformer predicted: 7817208832
[INFO] Current addr: 7817208832, Transformer predicted: 2170425664
[INFO] Current addr: 2170425664, Transformer predicted: 2170425728
[INFO] Current addr: 2170425728, Transformer predicted: 8563115776
[INFO] Current addr: 8563115776, Transformer predicted: 3017437888
[INFO] Current addr: 4530008768, Transformer predicted: 6829181056
[INFO] Current addr: 6829181056, Transformer predicted: 8563117248
[INFO] Current addr: 8563117248, Transformer predicted: 3017437696
[INFO] Current addr: 4530008576, Transformer predicted: 6829181248
[INFO] Current addr: 6829181248, Transformer predicted: 6829181184
[INFO] Current addr: 6829181184, Transformer predicted: 8563116224
[INFO] Current addr: 8563116224, Transformer predicted: 8563115968
[INFO] Current addr: 8563115968, Transformer predicted: 8563116032
[INFO] Current addr: 8563116032, Transformer predicted: 8563116096
[INFO] Current addr: 8563116096, Transformer predicted: 8563115840
[INFO] Current addr: 8563115840, Transformer predicted: 8563116160
[INFO] Current addr: 8563116160, Transformer predicted: 2915521216
[INFO] Current addr: 768037568, Transformer predicted: 8563115712
[INFO] Current addr: 8563115712, Transformer predicted: 8563116416
[INFO] Current addr: 8563116416, Transformer predicted: 8563116352
[INFO] Current addr: 8563116352, Transformer predicted: 8563116480
[INFO] Current addr: 8563116480, Transformer predicted: 8284229824
[INFO] Current addr: 768037056, Transformer predicted: 8284229760
[INFO] Current addr: 768036992, Transformer predicted: 8284230016
[INFO] Current addr: 768037248, Transformer predicted: 8284230080
[INFO] Current addr: 768037312, Transformer predicted: 8284230400
[INFO] Current addr: 768037632, Transformer predicted: 8284230144
[INFO] Current addr: 768037376, Transformer predicted: 8284229952
[INFO] Current addr: 768037184, Transformer predicted: 8284229888
[INFO] Current addr: 768036864, Transformer predicted: 8563116992
[INFO] Current addr: 8563116992, Transformer predicted: 8563117056
[INFO] Current addr: 8563117056, Transformer predicted: 8563117120
[INFO] Current addr: 8563117120, Transformer predicted: 8563117376
[INFO] Current addr: 8563117376, Transformer predicted: 8563117440
[INFO] Current addr: 8563117440, Transformer predicted: 2416377792
[INFO] Current addr: 268894144, Transformer predicted: 8563115136
[INFO] Current addr: 1743892480, Transformer predicted: 8563117312
[INFO] Current addr: 8563117312, Transformer predicted: 8563117504
[INFO] Current addr: 8563117504, Transformer predicted: 1743894464
[INFO] Current addr: 1743894464, Transformer predicted: 1743893696
[INFO] Current addr: 1743893696, Transformer predicted: 8563117568
[INFO] Current addr: 8563117568, Transformer predicted: 1743892672
[INFO] Current addr: 1743892672, Transformer predicted: 1743892736
[INFO] Current addr: 1743892736, Transformer predicted: 7655524288
[INFO] Current addr: 7655524288, Transformer predicted: 7655524352
[INFO] Current addr: 7655524352, Transformer predicted: 7655524416
[INFO] Current addr: 7655524416, Transformer predicted: 6109028096
[INFO] Current addr: 3813654272, Transformer predicted: 6109027904
[INFO] Current addr: 2523789248, Transformer predicted: 2523788864
[INFO] Current addr: 2523788800, Transformer predicted: 2523788864
[INFO] Current addr: 2523788864, Transformer predicted: 2194929984
[INFO] Current addr: 2194929984, Transformer predicted: 2523790656
[INFO] Current addr: 2523790656, Transformer predicted: 2523789184
[INFO] Current addr: 2523789184, Transformer predicted: 8563117952
[INFO] Current addr: 8563117952, Transformer predicted: 2915521088
[INFO] Current addr: 768037440, Transformer predicted: 2915520768
[INFO] Current addr: 768037120, Transformer predicted: 8284230272
[INFO] Current addr: 768037504, Transformer predicted: 7817208960
[INFO] Current addr: 7817208960, Transformer predicted: 5431669248
[INFO] Current addr: 5431669248, Transformer predicted: 3017440128
[INFO] Current addr: 3017440128, Transformer predicted: 3017440192
[INFO] Current addr: 3017440192, Transformer predicted: 3017440064
[INFO] Current addr: 3017440064, Transformer predicted: 3017440256
[INFO] Current addr: 3017440256, Transformer predicted: 3017440448
[INFO] Current addr: 6129126400, Transformer predicted: 5815993280
[INFO] Current addr: 5815993280, Transformer predicted: 3017440384
[INFO] Current addr: 3017440384, Transformer predicted: 3017440320
[INFO] Current addr: 3017440320, Transformer predicted: 3017440448
[INFO] Current addr: 3017440448, Transformer predicted: 6129126336
[INFO] Current addr: 6129126336, Transformer predicted: 3017440640
[INFO] Current addr: 3017440640, Transformer predicted: 3017440576
[INFO] Current addr: 3017440576, Transformer predicted: 3017440512
[INFO] Current addr: 3017440512, Transformer predicted: 5416622656
[INFO] Current addr: 5416622592, Transformer predicted: 5416622656
[INFO] Current addr: 5416622656, Transformer predicted: 5815993344
[INFO] Current addr: 5815993344, Transformer predicted: 1788580544
[INFO] Current addr: 714838720, Transformer predicted: 2554121920
[INFO] Current addr: 2554121920, Transformer predicted: 5610833344
[INFO] Current addr: 5610833344, Transformer predicted: 1932040768
[INFO] Current addr: 1932040768, Transformer predicted: 5431669120
[INFO] Current addr: 5431669120, Transformer predicted: 7297000320
[INFO] Current addr: 7297000320, Transformer predicted: 5431669184
[INFO] Current addr: 5431669184, Transformer predicted: 5431668864
[INFO] Current addr: 5431668864, Transformer predicted: 5431668800
[INFO] Current addr: 5431668800, Transformer predicted: 5416622784
[INFO] Current addr: 5416622784, Transformer predicted: 5416622848
[INFO] Current addr: 5416622848, Transformer predicted: 3017441216
[INFO] Current addr: 3017441216, Transformer predicted: 3017441152
[INFO] Current addr: 3017441152, Transformer predicted: 3017441088
[INFO] Current addr: 5431668736, Transformer predicted: 5416622720
[INFO] Current addr: 5416622720, Transformer predicted: 5431668928
[INFO] Current addr: 5431668928, Transformer predicted: 3017437440
[INFO] Current addr: 4530008320, Transformer predicted: 2906850112
[INFO] Current addr: 2906850112, Transformer predicted: 2906850240
[INFO] Current addr: 2906850240, Transformer predicted: 2170425792
[INFO] Current addr: 2170425792, Transformer predicted: 2170425856
[INFO] Current addr: 2170425856, Transformer predicted: 7817209152
[INFO] Current addr: 7817209152, Transformer predicted: 3773198784
[INFO] Current addr: 4530008512, Transformer predicted: 6829181376
[INFO] Current addr: 6829181376, Transformer predicted: 7817210624
[INFO] Current addr: 7817210624, Transformer predicted: 1178759360
[INFO] Current addr: 4530008256, Transformer predicted: 6829181632
[INFO] Current addr: 6829181632, Transformer predicted: 6829181568
[INFO] Current addr: 6829181568, Transformer predicted: 7817209600
[INFO] Current addr: 7817209600, Transformer predicted: 7817209344
[INFO] Current addr: 7817209344, Transformer predicted: 7817209408
[INFO] Current addr: 7817209408, Transformer predicted: 7817209472
[INFO] Current addr: 7817209472, Transformer predicted: 7817209216
[INFO] Current addr: 7817209216, Transformer predicted: 7817209536
[INFO] Current addr: 7817209536, Transformer predicted: 2906849856
[INFO] Current addr: 2906849856, Transformer predicted: 7817209088
[INFO] Current addr: 7817209088, Transformer predicted: 7817209792
[INFO] Current addr: 7817209792, Transformer predicted: 7817209728
[INFO] Current addr: 7817209728, Transformer predicted: 7817209856
[INFO] Current addr: 7817209856, Transformer predicted: 2906849536
[INFO] Current addr: 2906849280, Transformer predicted: 2906849536
[INFO] Current addr: 2906849536, Transformer predicted: 2906849600
[INFO] Current addr: 2906849600, Transformer predicted: 2906849664
[INFO] Current addr: 2906849664, Transformer predicted: 2906849408
[INFO] Current addr: 2906849408, Transformer predicted: 2906849472
[INFO] Current addr: 2906849472, Transformer predicted: 7817211712
[INFO] Current addr: 7817211712, Transformer predicted: 7817210368
[INFO] Current addr: 7817210368, Transformer predicted: 7817210432
[INFO] Current addr: 7817210432, Transformer predicted: 7817210752
[INFO] Current addr: 7817210752, Transformer predicted: 7817210688
[INFO] Current addr: 7817210688, Transformer predicted: 7817210816
[INFO] Current addr: 7817210816, Transformer predicted: 3083470720
[INFO] Current addr: 3083470720, Transformer predicted: 3083470784
[INFO] Current addr: 3083470784, Transformer predicted: 8349965184
[INFO] Current addr: 8349965184, Transformer predicted: 3319654464
[INFO] Current addr: 98428992, Transformer predicted: 3319654528
[INFO] Current addr: 98429056, Transformer predicted: 1172170944
[INFO] Current addr: 8349962240, Transformer predicted: 2194929920
[INFO] Current addr: 2194929920, Transformer predicted: 5816732032
[INFO] Current addr: 448022912, Transformer predicted: 5816732096
[INFO] Current addr: 448022976, Transformer predicted: 7817210880
[INFO] Current addr: 7817210880, Transformer predicted: 7655523776
[INFO] Current addr: 7655523776, Transformer predicted: 7817211584
[INFO] Current addr: 7817211584, Transformer predicted: 2906849792
[INFO] Current addr: 2906849792, Transformer predicted: 2906850304
[INFO] Current addr: 2906850304, Transformer predicted: 5431670784
[INFO] Current addr: 5431670784, Transformer predicted: 5431669440
[INFO] Current addr: 5431669440, Transformer predicted: 5431669504
[INFO] Current addr: 5431669504, Transformer predicted: 5431669376
[INFO] Current addr: 5431669376, Transformer predicted: 5431669568
[INFO] Current addr: 5431669568, Transformer predicted: 6129126272
[INFO] Current addr: 6129126272, Transformer predicted: 5431669696
[INFO] Current addr: 5431669696, Transformer predicted: 5431669632
[INFO] Current addr: 5431669632, Transformer predicted: 5431669760
[INFO] Current addr: 5431669760, Transformer predicted: 6129126208
[INFO] Current addr: 6129126208, Transformer predicted: 5815993408
[INFO] Current addr: 5815993408, Transformer predicted: 5431669888
[INFO] Current addr: 5431669888, Transformer predicted: 5431669824
[INFO] Current addr: 5431669824, Transformer predicted: 5431669952
[INFO] Current addr: 5431669952, Transformer predicted: 5186901696
[INFO] Current addr: 891934400, Transformer predicted: 3303836992
[INFO] Current addr: 3303836992, Transformer predicted: 1177677952
[INFO] Current addr: 1177677952, Transformer predicted: 1177678016
[INFO] Current addr: 1177678016, Transformer predicted: 5760559040
[INFO] Current addr: 5760559040, Transformer predicted: 5431670656
[INFO] Current addr: 5431670656, Transformer predicted: 5431672384
[INFO] Current addr: 5431672384, Transformer predicted: 5431672320
[INFO] Current addr: 5431672320, Transformer predicted: 5431670976
[INFO] Current addr: 5431670976, Transformer predicted: 5431671040
[INFO] Current addr: 5431671040, Transformer predicted: 5431670912
[INFO] Current addr: 5431670912, Transformer predicted: 5431671104
[INFO] Current addr: 5431671104, Transformer predicted: 6129126144
[INFO] Current addr: 6129126144, Transformer predicted: 5815993472
[INFO] Current addr: 5815993472, Transformer predicted: 5431671232
[INFO] Current addr: 5431671232, Transformer predicted: 5431671168
[INFO] Current addr: 5431671168, Transformer predicted: 5431671296
[INFO] Current addr: 5431671296, Transformer predicted: 6129126080
[INFO] Current addr: 6129126080, Transformer predicted: 5431671424
[INFO] Current addr: 5431671424, Transformer predicted: 5431671488
[INFO] Current addr: 5431671488, Transformer predicted: 5431671360
[INFO] Current addr: 5431671360, Transformer predicted: 5431671552
[INFO] Current addr: 5431671552, Transformer predicted: 5815993536
[INFO] Current addr: 5815993536, Transformer predicted: 8046637824
[INFO] Current addr: 6316447424, Transformer predicted: 8046637824
[INFO] Current addr: 8046637824, Transformer predicted: 3320045824
[INFO] Current addr: 3320045824, Transformer predicted: 6598741632
[INFO] Current addr: 156290688, Transformer predicted: 5431672256
[INFO] Current addr: 5431672256, Transformer predicted: 8568822592
[INFO] Current addr: 1052629824, Transformer predicted: 5431671936
[INFO] Current addr: 5431671936, Transformer predicted: 8568822592
[INFO] Current addr: 5431671616, Transformer predicted: 5431671744
[INFO] Current addr: 5431671744, Transformer predicted: 5431671808
[INFO] Current addr: 5431671808, Transformer predicted: 5431672000
[INFO] Current addr: 5431672000, Transformer predicted: 6249120064
[INFO] Current addr: 3457044224, Transformer predicted: 6249120000
[INFO] Current addr: 6249120000, Transformer predicted: 6249120128
[INFO] Current addr: 6249120128, Transformer predicted: 6249120064
[INFO] Current addr: 6249120064, Transformer predicted: 3457044416
[INFO] Current addr: 3457044416, Transformer predicted: 2170426112
[INFO] Current addr: 2170426112, Transformer predicted: 6829181952
[INFO] Current addr: 6829181952, Transformer predicted: 4113814336
[INFO] Current addr: 4113814336, Transformer predicted: 3457044352
[INFO] Current addr: 3457044352, Transformer predicted: 6829182144
[INFO] Current addr: 6829182144, Transformer predicted: 4113815872
[INFO] Current addr: 4113815872, Transformer predicted: 3457044160
[INFO] Current addr: 3457044160, Transformer predicted: 6829182272
[INFO] Current addr: 6829182272, Transformer predicted: 6829182208
[INFO] Current addr: 6829182208, Transformer predicted: 4113814848
[INFO] Current addr: 4113814848, Transformer predicted: 4113814784
[INFO] Current addr: 4113814784, Transformer predicted: 4113814592
[INFO] Current addr: 4113814592, Transformer predicted: 4113814528
[INFO] Current addr: 4113814528, Transformer predicted: 4113814656
[INFO] Current addr: 4113814656, Transformer predicted: 4113814720
[INFO] Current addr: 4113814720, Transformer predicted: 4113814400
[INFO] Current addr: 4113814400, Transformer predicted: 4113814464
[INFO] Current addr: 4113814464, Transformer predicted: 4113814528
[INFO] Current addr: 6249119744, Transformer predicted: 5269991360
[INFO] Current addr: 5269991360, Transformer predicted: 4113814976
[INFO] Current addr: 4113814976, Transformer predicted: 4113815040
[INFO] Current addr: 4113815040, Transformer predicted: 4113815104
[INFO] Current addr: 4113815104, Transformer predicted: 4113816896
[INFO] Current addr: 4113816896, Transformer predicted: 4113816960
[INFO] Current addr: 4113816960, Transformer predicted: 5269991104
[INFO] Current addr: 5269991104, Transformer predicted: 5269991168
[INFO] Current addr: 5269991040, Transformer predicted: 5269991168
[INFO] Current addr: 5269991168, Transformer predicted: 4113817024
[INFO] Current addr: 4113817024, Transformer predicted: 4113817088
[INFO] Current addr: 4113817088, Transformer predicted: 4113816768
[INFO] Current addr: 4113816768, Transformer predicted: 4113816704
[INFO] Current addr: 4113816704, Transformer predicted: 4113815616
[INFO] Current addr: 4113815616, Transformer predicted: 4113815680
[INFO] Current addr: 4113815680, Transformer predicted: 4113816000
[INFO] Current addr: 4113816000, Transformer predicted: 4113815936
[INFO] Current addr: 4113815936, Transformer predicted: 4113816256
[INFO] Current addr: 4113816256, Transformer predicted: 2523790720
[INFO] Current addr: 2523790720, Transformer predicted: 2523790784
[INFO] Current addr: 2523790784, Transformer predicted: 1231685376
[INFO] Current addr: 157943552, Transformer predicted: 6109027328
[INFO] Current addr: 3813653504, Transformer predicted: 1316838912
[INFO] Current addr: 448022336, Transformer predicted: 5816732288
[INFO] Current addr: 448023168, Transformer predicted: 5816732352
[INFO] Current addr: 448023232, Transformer predicted: 4113816640
[INFO] Current addr: 4113816640, Transformer predicted: 4113816576
[INFO] Current addr: 4113816576, Transformer predicted: 5269991232
[INFO] Current addr: 5269991232, Transformer predicted: 5269991296
[INFO] Current addr: 5269991296, Transformer predicted: 6249120192
[INFO] Current addr: 6249120192, Transformer predicted: 2679456832
[INFO] Current addr: 2679456832, Transformer predicted: 5431672512
[INFO] Current addr: 5431672512, Transformer predicted: 5431672576
[INFO] Current addr: 5431672576, Transformer predicted: 5431672448
[INFO] Current addr: 5431672448, Transformer predicted: 5431672640
[INFO] Current addr: 5431672640, Transformer predicted: 6129126016
[INFO] Current addr: 6129126016, Transformer predicted: 5431672768
[INFO] Current addr: 5431672768, Transformer predicted: 5431672704
[INFO] Current addr: 5431672704, Transformer predicted: 2679455808
[INFO] Current addr: 2679455744, Transformer predicted: 6129125952
[INFO] Current addr: 6129125952, Transformer predicted: 5815993600
[INFO] Current addr: 5815993600, Transformer predicted: 2679455936
[INFO] Current addr: 2679455936, Transformer predicted: 2679455872
[INFO] Current addr: 2679455872, Transformer predicted: 2679455808
[INFO] Current addr: 2679455808, Transformer predicted: 2679456000
[INFO] Current addr: 2679456000, Transformer predicted: 1788580608
[INFO] Current addr: 714838784, Transformer predicted: 5960636096
[INFO] Current addr: 5960636096, Transformer predicted: 2864249984
[INFO] Current addr: 2864249984, Transformer predicted: 5760557632
[INFO] Current addr: 5760557632, Transformer predicted: 2679456704
[INFO] Current addr: 2679456704, Transformer predicted: 7896897600
[INFO] Current addr: 7896897600, Transformer predicted: 2679456384
[INFO] Current addr: 2679456384, Transformer predicted: 2679456192
[INFO] Current addr: 2679456192, Transformer predicted: 2679456128
[INFO] Current addr: 2679456128, Transformer predicted: 2679456256
[INFO] Current addr: 2679456256, Transformer predicted: 2679456320
[INFO] Current addr: 2679456320, Transformer predicted: 2679456064
[INFO] Current addr: 2679456064, Transformer predicted: 2679456448
[INFO] Current addr: 2679456448, Transformer predicted: 3457043904
[INFO] Current addr: 3457043904, Transformer predicted: 8532750528
[INFO] Current addr: 8532750528, Transformer predicted: 8532750656
[INFO] Current addr: 8532750656, Transformer predicted: 6249120576
[INFO] Current addr: 6249120576, Transformer predicted: 6249120640
[INFO] Current addr: 6249120640, Transformer predicted: 2906850496
[INFO] Current addr: 2906850496, Transformer predicted: 3457044096
[INFO] Current addr: 3457044096, Transformer predicted: 6829182464
[INFO] Current addr: 6829182464, Transformer predicted: 3173939072
[INFO] Current addr: 3173939072, Transformer predicted: 3457043840
[INFO] Current addr: 3457043840, Transformer predicted: 6829182656
[INFO] Current addr: 6829182656, Transformer predicted: 6829182592
[INFO] Current addr: 6829182592, Transformer predicted: 3173938112
[INFO] Current addr: 3173938112, Transformer predicted: 3173937856
[INFO] Current addr: 3173937856, Transformer predicted: 3173937920
[INFO] Current addr: 3173937920, Transformer predicted: 3173937984
[INFO] Current addr: 3173937984, Transformer predicted: 2906850560
[INFO] Current addr: 2906850560, Transformer predicted: 3173938048
[INFO] Current addr: 3173938048, Transformer predicted: 3173941184
[INFO] Current addr: 3173941184, Transformer predicted: 4113817152
[INFO] Current addr: 4113817152, Transformer predicted: 3173938304
[INFO] Current addr: 3173938304, Transformer predicted: 3173938240
[INFO] Current addr: 3173938240, Transformer predicted: 3173938368
[INFO] Current addr: 3173938368, Transformer predicted: 3173940672
[INFO] Current addr: 3173940672, Transformer predicted: 3173940608
[INFO] Current addr: 3173940608, Transformer predicted: 3173940864
[INFO] Current addr: 3173940864, Transformer predicted: 3173940928
[INFO] Current addr: 3173940928, Transformer predicted: 3173940992
[INFO] Current addr: 8532750336, Transformer predicted: 3173940992
[INFO] Current addr: 3173940992, Transformer predicted: 3173940800
[INFO] Current addr: 3173940800, Transformer predicted: 3173940480
[INFO] Current addr: 3173940480, Transformer predicted: 3173938816
[INFO] Current addr: 3173938816, Transformer predicted: 3173938880
[INFO] Current addr: 3173938880, Transformer predicted: 3173938944
[INFO] Current addr: 3173938944, Transformer predicted: 3173939200
[INFO] Current addr: 3173939200, Transformer predicted: 3173939136
[INFO] Current addr: 3173939136, Transformer predicted: 3173939584
[INFO] Current addr: 3173939584, Transformer predicted: 3173928448
[INFO] Current addr: 3457043968, Transformer predicted: 5654277888
[INFO] Current addr: 5654277888, Transformer predicted: 3173939712
[INFO] Current addr: 3173939712, Transformer predicted: 3173939648
[INFO] Current addr: 3173939648, Transformer predicted: 3173939776
[INFO] Current addr: 3173939776, Transformer predicted: 5654277952
[INFO] Current addr: 5654277952, Transformer predicted: 3173940352
[INFO] Current addr: 3173940352, Transformer predicted: 3173941056
[INFO] Current addr: 3173941056, Transformer predicted: 3173940736
[INFO] Current addr: 3173940736, Transformer predicted: 3173941120
[INFO] Current addr: 3173941120, Transformer predicted: 8532750720
[INFO] Current addr: 8532750720, Transformer predicted: 2679458368
[INFO] Current addr: 2679458368, Transformer predicted: 2679457024
[INFO] Current addr: 2679457024, Transformer predicted: 2679456960
[INFO] Current addr: 2679456960, Transformer predicted: 2679457088
[INFO] Current addr: 2679457088, Transformer predicted: 2679456896
[INFO] Current addr: 2679456896, Transformer predicted: 2679457152
[INFO] Current addr: 2679457152, Transformer predicted: 6129125888
[INFO] Current addr: 6129125888, Transformer predicted: 2679457216
[INFO] Current addr: 5815993664, Transformer predicted: 2679457216
[INFO] Current addr: 2679457216, Transformer predicted: 2679457280
[INFO] Current addr: 2679457280, Transformer predicted: 2679457344
[INFO] Current addr: 2679457344, Transformer predicted: 6129125824
[INFO] Current addr: 6129125824, Transformer predicted: 4342108032
[INFO] Current addr: 4342108032, Transformer predicted: 2679457472
[INFO] Current addr: 2679457472, Transformer predicted: 2679457408
[INFO] Current addr: 2679457408, Transformer predicted: 2679457536
[INFO] Current addr: 2679457536, Transformer predicted: 4342108096
[INFO] Current addr: 4342108096, Transformer predicted: 6316446976
[INFO] Current addr: 6316446976, Transformer predicted: 2554119232
[INFO] Current addr: 2554119232, Transformer predicted: 2864250432
[INFO] Current addr: 2864250432, Transformer predicted: 2554119296
[INFO] Current addr: 2554119296, Transformer predicted: 5760557184
[INFO] Current addr: 5760557184, Transformer predicted: 2679458240
[INFO] Current addr: 2679458240, Transformer predicted: 7896897728
[INFO] Current addr: 7896897728, Transformer predicted: 2679458304
[INFO] Current addr: 2679458304, Transformer predicted: 2679457984
[INFO] Current addr: 2679457984, Transformer predicted: 2679457920
[INFO] Current addr: 2679457920, Transformer predicted: 2679457728
[INFO] Current addr: 2679457728, Transformer predicted: 2679457792
[INFO] Current addr: 2679457792, Transformer predicted: 2679457856
[INFO] Current addr: 2679457856, Transformer predicted: 2679457600
[INFO] Current addr: 2679457600, Transformer predicted: 2679458048
[INFO] Current addr: 2679458048, Transformer predicted: 3457043584
[INFO] Current addr: 3457043584, Transformer predicted: 2602881600
[INFO] Current addr: 2602881600, Transformer predicted: 2602881728
[INFO] Current addr: 2602881728, Transformer predicted: 6249120704
[INFO] Current addr: 6249120704, Transformer predicted: 6249120768
[INFO] Current addr: 6249120768, Transformer predicted: 5600105024
[INFO] Current addr: 5600105024, Transformer predicted: 3457043776
[INFO] Current addr: 3457043776, Transformer predicted: 8532751040
[INFO] Current addr: 8532751040, Transformer predicted: 5600106496
[INFO] Current addr: 5600106496, Transformer predicted: 3457043520
[INFO] Current addr: 3457043520, Transformer predicted: 8532751296
[INFO] Current addr: 8532751296, Transformer predicted: 8532751232
[INFO] Current addr: 8532751232, Transformer predicted: 5600105472
[INFO] Current addr: 5600105472, Transformer predicted: 5600105216
[INFO] Current addr: 5600105216, Transformer predicted: 5600105280
[INFO] Current addr: 5600105280, Transformer predicted: 5600105344
[INFO] Current addr: 5600105344, Transformer predicted: 5600105088
[INFO] Current addr: 5600105088, Transformer predicted: 5600105408
[INFO] Current addr: 5600105408, Transformer predicted: 2602881344
[INFO] Current addr: 2602881344, Transformer predicted: 2906850432
[INFO] Current addr: 2906850432, Transformer predicted: 2906850368
[INFO] Current addr: 2906850368, Transformer predicted: 5600105664
[INFO] Current addr: 5600105664, Transformer predicted: 5600105728
[INFO] Current addr: 5600105728, Transformer predicted: 5600108288
[INFO] Current addr: 5600108288, Transformer predicted: 2602881280
[INFO] Current addr: 2602881024, Transformer predicted: 2602881088
[INFO] Current addr: 2602881088, Transformer predicted: 2602881152
[INFO] Current addr: 2602881152, Transformer predicted: 5600108416
[INFO] Current addr: 5600108416, Transformer predicted: 5600108480
[INFO] Current addr: 5600108480, Transformer predicted: 5600108096
[INFO] Current addr: 5600108096, Transformer predicted: 5600106240
[INFO] Current addr: 5600106240, Transformer predicted: 5600106304
[INFO] Current addr: 5600106304, Transformer predicted: 5600106624
[INFO] Current addr: 5600106624, Transformer predicted: 5600106560
[INFO] Current addr: 5600106560, Transformer predicted: 5600107264
[INFO] Current addr: 5600107264, Transformer predicted: 3457043648
[INFO] Current addr: 3457043648, Transformer predicted: 5654278016
[INFO] Current addr: 5654278016, Transformer predicted: 5600107392
[INFO] Current addr: 5600107392, Transformer predicted: 5654278080
[INFO] Current addr: 5600107456, Transformer predicted: 5654278080
[INFO] Current addr: 5654278080, Transformer predicted: 5600107968
[INFO] Current addr: 5600107968, Transformer predicted: 5600107328
[INFO] Current addr: 5600107328, Transformer predicted: 2602881280
[INFO] Current addr: 2602881280, Transformer predicted: 2602881792
[INFO] Current addr: 2602881792, Transformer predicted: 3690065984
[INFO] Current addr: 3690065984, Transformer predicted: 2679458560
[INFO] Current addr: 2679458560, Transformer predicted: 2679458624
[INFO] Current addr: 2679458624, Transformer predicted: 2679458496
[INFO] Current addr: 2679458496, Transformer predicted: 2679458688
[INFO] Current addr: 2679458688, Transformer predicted: 6129125760
[INFO] Current addr: 6129125760, Transformer predicted: 2679458816
[INFO] Current addr: 2679458816, Transformer predicted: 2679458752
[INFO] Current addr: 2679458752, Transformer predicted: 2679458880
[INFO] Current addr: 2679458880, Transformer predicted: 6129125696
[INFO] Current addr: 6129125696, Transformer predicted: 2679459008
[INFO] Current addr: 1880731648, Transformer predicted: 2679459008
[INFO] Current addr: 2679459008, Transformer predicted: 2679458944
[INFO] Current addr: 2679458944, Transformer predicted: 2679459072
[INFO] Current addr: 2679459072, Transformer predicted: 3162407680
[INFO] Current addr: 3162407680, Transformer predicted: 3303836032
[INFO] Current addr: 3303836032, Transformer predicted: 6893256128
[INFO] Current addr: 6893256128, Transformer predicted: 4574392576
[INFO] Current addr: 4574392576, Transformer predicted: 2679459776
[INFO] Current addr: 2679459776, Transformer predicted: 7896897152
[INFO] Current addr: 7896897152, Transformer predicted: 3017440960
[INFO] Current addr: 3017440960, Transformer predicted: 3690066176
[INFO] Current addr: 3690066176, Transformer predicted: 3690066240
[INFO] Current addr: 3690066240, Transformer predicted: 3690066112
[INFO] Current addr: 3690066112, Transformer predicted: 3690066304
[INFO] Current addr: 3690066304, Transformer predicted: 6129125632
[INFO] Current addr: 6129125632, Transformer predicted: 1880731712
[INFO] Current addr: 1880731712, Transformer predicted: 3690066432
[INFO] Current addr: 3690066432, Transformer predicted: 3690066368
[INFO] Current addr: 3690066368, Transformer predicted: 3690066496
[INFO] Current addr: 3690066496, Transformer predicted: 6129125568
[INFO] Current addr: 6129125568, Transformer predicted: 3690066624
[INFO] Current addr: 3690066624, Transformer predicted: 3690066688
[INFO] Current addr: 3690066688, Transformer predicted: 3690066560
[INFO] Current addr: 3690066560, Transformer predicted: 3690066752
[INFO] Current addr: 3690066752, Transformer predicted: 1880731776
[INFO] Current addr: 1880731776, Transformer predicted: 5186901760
[INFO] Current addr: 891934464, Transformer predicted: 5244553088
[INFO] Current addr: 5244553088, Transformer predicted: 7122476736
[INFO] Current addr: 7122476736, Transformer predicted: 7122476608
[INFO] Current addr: 7000821312, Transformer predicted: 3177334208
[INFO] Current addr: 3177334208, Transformer predicted: 3177334272
[INFO] Current addr: 3177334272, Transformer predicted: 3017440896
[INFO] Current addr: 7000821376, Transformer predicted: 4574393728
[INFO] Current addr: 4574393728, Transformer predicted: 3017440832
[INFO] Current addr: 3017440832, Transformer predicted: 7896896896
[INFO] Current addr: 7896896896, Transformer predicted: 3017440896
[INFO] Current addr: 3017440896, Transformer predicted: 3690067136
[INFO] Current addr: 3690067136, Transformer predicted: 3690066816
[...]
[INFO] Current addr: 1641258176, Transformer predicted: 4995551744
[INFO] Current addr: 4995551744, Transformer predicted: 1880732160
[INFO] Current addr: 1880732160, Transformer predicted: 6316446016
[INFO] Current addr: 6316446016, Transformer predicted: 5760558592
[INFO] Current addr: 5960634368, Transformer predicted: 1382775040
[INFO] Current addr: 1382775040, Transformer predicted: 5760558592
[INFO] Current addr: 5760558592, Transformer predicted: 4995552448
[INFO] Current addr: 4995552448, Transformer predicted: 7896897408
[INFO] Current addr: 7896897408, Transformer predicted: 4995554176
[INFO] Current addr: 4995554176, Transformer predicted: 4995554112
[INFO] Current addr: 4995554112, Transformer predicted: 4995552768
[INFO] Current addr: 4995552768, Transformer predicted: 4995552832
[INFO] Current addr: 4995552832, Transformer predicted: 4995552704
[INFO] Current addr: 4995552704, Transformer predicted: 4995552896
[INFO] Current addr: 4995552896, Transformer predicted: 6129124992
[INFO] Current addr: 6129124992, Transformer predicted: 4995553024
[INFO] Current addr: 4995553024, Transformer predicted: 4995552960
[INFO] Current addr: 4995552960, Transformer predicted: 4995553088
[INFO] Current addr: 4995553088, Transformer predicted: 6129124928
[INFO] Current addr: 6129124928, Transformer predicted: 1880732224
[INFO] Current addr: 1880732224, Transformer predicted: 4995553216
[INFO] Current addr: 4995553216, Transformer predicted: 4995553280
[INFO] Current addr: 4995553280, Transformer predicted: 4995553152
[INFO] Current addr: 4995553152, Transformer predicted: 4995553344
[INFO] Current addr: 4995553344, Transformer predicted: 7334385984
[INFO] Current addr: 891935040, Transformer predicted: 4252799744
[INFO] Current addr: 4252799744, Transformer predicted: 4749801024
[INFO] Current addr: 4749801024, Transformer predicted: 4574393024
[INFO] Current addr: 4574393024, Transformer predicted: 4995554048
[INFO] Current addr: 4995554048, Transformer predicted: 4995553728
[INFO] Current addr: 7896897088, Transformer predicted: 4995553728
[INFO] Current addr: 4995553728, Transformer predicted: 4995553408
[INFO] Current addr: 4995553408, Transformer predicted: 4995553536
[INFO] Current addr: 4995553536, Transformer predicted: 4995553600
[INFO] Current addr: 4995553600, Transformer predicted: 4995553792
[INFO] Current addr: 4995553792, Transformer predicted: 2734368000
[INFO] Current addr: 586884352, Transformer predicted: 6033879488
[INFO] Current addr: 6033879488, Transformer predicted: 6033879616
[INFO] Current addr: 6033879616, Transformer predicted: 8103077504
[INFO] Current addr: 586884736, Transformer predicted: 6249121728
[INFO] Current addr: 6249121728, Transformer predicted: 6249121792
[INFO] Current addr: 6249121792, Transformer predicted: 8532753216
[INFO] Current addr: 8532753216, Transformer predicted: 6829399360
[INFO] Current addr: 6829399360, Transformer predicted: 8103077440
[INFO] Current addr: 586884672, Transformer predicted: 8532753408
[INFO] Current addr: 8532753408, Transformer predicted: 8018617216
[INFO] Current addr: 8018617216, Transformer predicted: 8103077056
[INFO] Current addr: 586884288, Transformer predicted: 8532753856
[INFO] Current addr: 8532753856, Transformer predicted: 8532753792
[INFO] Current addr: 8532753792, Transformer predicted: 6829399872
[INFO] Current addr: 6829399872, Transformer predicted: 6829399808
[INFO] Current addr: 6829399808, Transformer predicted: 6829399616
[INFO] Current addr: 6829399616, Transformer predicted: 6829399552
[INFO] Current addr: 6829399552, Transformer predicted: 6829399680
[INFO] Current addr: 6829399680, Transformer predicted: 6829399744
[INFO] Current addr: 6829399744, Transformer predicted: 6829399424
[INFO] Current addr: 6829399424, Transformer predicted: 6829399488
[INFO] Current addr: 6829399488, Transformer predicted: 6033879360
[INFO] Current addr: 6033879360, Transformer predicted: 6829400000
[INFO] Current addr: 6829400000, Transformer predicted: 6829399744
[INFO] Current addr: 8018616320, Transformer predicted: 8018616384
[INFO] Current addr: 8018616384, Transformer predicted: 8018619136
[INFO] Current addr: 8018619136, Transformer predicted: 8018619072
[INFO] Current addr: 8018619072, Transformer predicted: 8018619328
[INFO] Current addr: 8018619328, Transformer predicted: 8018619392
[INFO] Current addr: 8018619392, Transformer predicted: 8018619456
[INFO] Current addr: 8018619456, Transformer predicted: 8018619264
[INFO] Current addr: 8018619264, Transformer predicted: 8018619200
[INFO] Current addr: 8018618944, Transformer predicted: 8018616896
[INFO] Current addr: 8018616896, Transformer predicted: 8018616960
[INFO] Current addr: 8018616960, Transformer predicted: 8018617344
[INFO] Current addr: 8018617344, Transformer predicted: 8018617280
[INFO] Current addr: 8018617280, Transformer predicted: 8018617408
[INFO] Current addr: 8018617408, Transformer predicted: 8018618816
[INFO] Current addr: 8018618816, Transformer predicted: 8018619520
[INFO] Current addr: 8018619520, Transformer predicted: 8018619200
[INFO] Current addr: 8018619200, Transformer predicted: 8018619584
[INFO] Current addr: 8018619584, Transformer predicted: 6033879808
[INFO] Current addr: 6033879808, Transformer predicted: 3591922048
[INFO] Current addr: 370696576, Transformer predicted: 4995554304
[INFO] Current addr: 4995554304, Transformer predicted: 4995554368
[INFO] Current addr: 4995554368, Transformer predicted: 4995554240
[INFO] Current addr: 4995554240, Transformer predicted: 4995554432
[INFO] Current addr: 4995554432, Transformer predicted: 6129124864
[INFO] Current addr: 6129124864, Transformer predicted: 1880732288
[INFO] Current addr: 1880732288, Transformer predicted: 4995554560
[INFO] Current addr: 4995554560, Transformer predicted: 4995554496
[INFO] Current addr: 4995554496, Transformer predicted: 4995554624
[INFO] Current addr: 4995554624, Transformer predicted: 6129124800
[INFO] Current addr: 6129124800, Transformer predicted: 4995554816
[INFO] Current addr: 4995554816, Transformer predicted: 4995554752
[INFO] Current addr: 4995554752, Transformer predicted: 4995554688
[INFO] Current addr: 4995554688, Transformer predicted: 4995554880
[INFO] Current addr: 4995554880, Transformer predicted: 1880732352
[INFO] Current addr: 1880732352, Transformer predicted: 7345350976
[INFO] Current addr: 7345350976, Transformer predicted: 3303837248
[INFO] Current addr: 3303837248, Transformer predicted: 1177678144
[INFO] Current addr: 1177678144, Transformer predicted: 1177678208
[INFO] Current addr: 1177678208, Transformer predicted: 5760558912
[INFO] Current addr: 5760558912, Transformer predicted: 7886889216
[INFO] Current addr: 370696448, Transformer predicted: 7896897344
[INFO] Current addr: 7896897344, Transformer predicted: 4995555264
[INFO] Current addr: 4995555264, Transformer predicted: 4995554944
[INFO] Current addr: 4995554944, Transformer predicted: 4995555072
[INFO] Current addr: 4995555072, Transformer predicted: 4995555136
[INFO] Current addr: 4995555136, Transformer predicted: 4995555200
[INFO] Current addr: 4995555200, Transformer predicted: 4995555008
[INFO] Current addr: 4995555008, Transformer predicted: 4995555264
[INFO] Current addr: 370696192, Transformer predicted: 7029334976
[INFO] Current addr: 586884032, Transformer predicted: 6918087040
[INFO] Current addr: 475636096, Transformer predicted: 6918087168
[INFO] Current addr: 475636224, Transformer predicted: 6249121856
[INFO] Current addr: 6249121856, Transformer predicted: 6249121920
[INFO] Current addr: 6249121920, Transformer predicted: 6033879936
[INFO] Current addr: 6033879936, Transformer predicted: 8103076992
[INFO] Current addr: 586884224, Transformer predicted: 8532754048
[INFO] Current addr: 8532754048, Transformer predicted: 6033881472
[INFO] Current addr: 6033881472, Transformer predicted: 8103076736
[INFO] Current addr: 586883968, Transformer predicted: 8532754240
[INFO] Current addr: 8532754240, Transformer predicted: 8532754176
[INFO] Current addr: 8532754176, Transformer predicted: 6033880448
[INFO] Current addr: 6033880448, Transformer predicted: 6033880384
[INFO] Current addr: 6033880384, Transformer predicted: 6033880192
[INFO] Current addr: 6033880192, Transformer predicted: 6033880128
[INFO] Current addr: 6033880128, Transformer predicted: 6033880256
[INFO] Current addr: 6033880256, Transformer predicted: 6033880320
[INFO] Current addr: 6033880320, Transformer predicted: 6033880000
[INFO] Current addr: 6033880000, Transformer predicted: 6033880064
[INFO] Current addr: 6033880064, Transformer predicted: 6918086784
[INFO] Current addr: 475635840, Transformer predicted: 6033880576
[INFO] Current addr: 6033880576, Transformer predicted: 6033880640
[INFO] Current addr: 6033880640, Transformer predicted: 6033880704
[INFO] Current addr: 6033880704, Transformer predicted: 6033882688
[INFO] Current addr: 6033882688, Transformer predicted: 6033882752
[INFO] Current addr: 6033882752, Transformer predicted: 6033882944
[INFO] Current addr: 6033882944, Transformer predicted: 6033883008
[INFO] Current addr: 6033883008, Transformer predicted: 6033883072
[INFO] Current addr: 6033883072, Transformer predicted: 6033882816
[INFO] Current addr: 6033882816, Transformer predicted: 6033882880
[INFO] Current addr: 6033882880, Transformer predicted: 6033882560
[INFO] Current addr: 6033882560, Transformer predicted: 6033882496
[INFO] Current addr: 6033882496, Transformer predicted: 6033881216
[INFO] Current addr: 6033881216, Transformer predicted: 6033881280
[INFO] Current addr: 6033881280, Transformer predicted: 6033881344
[INFO] Current addr: 6033881344, Transformer predicted: 6033881536
[INFO] Current addr: 6033881600, Transformer predicted: 6033881664
[INFO] Current addr: 6033881664, Transformer predicted: 6033881536
[INFO] Current addr: 6033881536, Transformer predicted: 6033882432
[INFO] Current addr: 6033882432, Transformer predicted: 6033882368
[INFO] Current addr: 6033882368, Transformer predicted: 6033881728
[INFO] Current addr: 6033881728, Transformer predicted: 8349964992
[INFO] Current addr: 8349964992, Transformer predicted: 5517112128
[INFO] Current addr: 5517112128, Transformer predicted: 5517112192
[INFO] Current addr: 5517112192, Transformer predicted: 5517112256
[INFO] Current addr: 5517112896, Transformer predicted: 6918086720
[INFO] Current addr: 475635776, Transformer predicted: 6918087296
[INFO] Current addr: 475636352, Transformer predicted: 3591923584
[INFO] Current addr: 370698112, Transformer predicted: 41172886080
[INFO] Current addr: 370696768, Transformer predicted: 41172886016
[INFO] Current addr: 370696704, Transformer predicted: 57394060166
[INFO] Current addr: 370696832, Transformer predicted: 35919223686
[INFO] Current addr: 370696640, Transformer predicted: 57394060166
[INFO] Current addr: 370696896, Transformer predicted: 61291247366
[INFO] Current addr: 6129124736, Transformer predicted: 57394060806
[INFO] Current addr: 370696960, Transformer predicted: 35919224966
[INFO] Current addr: 370697024, Transformer predicted: 35919225606
[INFO] Current addr: 370697088, Transformer predicted: 61291246726
[INFO] Current addr: 6129124672, Transformer predicted: 18807324166
[INFO] Current addr: 1880732416, Transformer predicted: 35919226886
[INFO] Current addr: 370697216, Transformer predicted: 35919226246
[INFO] Current addr: 370697152, Transformer predicted: 35919227526
[INFO] Current addr: 370697280, Transformer predicted: 73453525766
[INFO] Current addr: 7345352576, Transformer predicted: 25541216646
[INFO] Current addr: 2554121664, Transformer predicted: 56108330886
[INFO] Current addr: 5610833088, Transformer predicted: 19320408966
[INFO] Current addr: 1932040896, Transformer predicted: 35919234566
[INFO] Current addr: 370697984, Transformer predicted: 35919235206
[INFO] Current addr: 370698048, Transformer predicted: 35919232006
[INFO] Current addr: 370697728, Transformer predicted: 35919231366
[INFO] Current addr: 370697664, Transformer predicted: 35919229446
[INFO] Current addr: 370697472, Transformer predicted: 35919230086
[INFO] Current addr: 370697536, Transformer predicted: 35919230726
[INFO] Current addr: 370697600, Transformer predicted: 35919228166
[INFO] Current addr: 370697344, Transformer predicted: 35919232646
[INFO] Current addr: 370697792, Transformer predicted: 70293346566
[INFO] Current addr: 586883712, Transformer predicted: 26511566726
[INFO] Current addr: 503673024, Transformer predicted: 15774149766
[INFO] Current addr: 503673152, Transformer predicted: 62491220486
[INFO] Current addr: 6249122048, Transformer predicted: 69180874246
[INFO] Current addr: 475636480, Transformer predicted: 70293348486
[INFO] Current addr: 586883904, Transformer predicted: 48818511366
[INFO] Current addr: 5600104448, Transformer predicted: 58443470726
[INFO] Current addr: 475637952, Transformer predicted: 56001046406
[INFO] Current addr: 5600104640, Transformer predicted: 56001045766
[INFO] Current addr: 5600104576, Transformer predicted: 58443461126
[INFO] Current addr: 475636992, Transformer predicted: 69180878726
[INFO] Current addr: 475636928, Transformer predicted: 58443458566
[INFO] Current addr: 475636736, Transformer predicted: 58443457926
[INFO] Current addr: 475636672, Transformer predicted: 58443459206
[INFO] Current addr: 475636800, Transformer predicted: 58443459846
[INFO] Current addr: 475636864, Transformer predicted: 58443456646
[INFO] Current addr: 475636544, Transformer predicted: 58443457286
[INFO] Current addr: 475636608, Transformer predicted: 58443488646
[INFO] Current addr: 475639744, Transformer predicted: 68293992966
[INFO] Current addr: 6829399296, Transformer predicted: 58443462406
[INFO] Current addr: 475637120, Transformer predicted: 58443463046
[INFO] Current addr: 475637184, Transformer predicted: 69180881926
[INFO] Current addr: 475637248, Transformer predicted: 58443483526
[INFO] Current addr: 475639232, Transformer predicted: 58443482886
[INFO] Current addr: 475639168, Transformer predicted: 58443485446
[INFO] Current addr: 475639424, Transformer predicted: 58443486086
[INFO] Current addr: 475639488, Transformer predicted: 58443486726
[INFO] Current addr: 503672832, Transformer predicted: 58443486726
[INFO] Current addr: 475639552, Transformer predicted: 69180903046
[INFO] Current addr: 475639360, Transformer predicted: 58443481606
[INFO] Current addr: 475639040, Transformer predicted: 58443468806
[INFO] Current addr: 475637760, Transformer predicted: 58443469446
[INFO] Current addr: 475637824, Transformer predicted: 58443472646
[INFO] Current addr: 475638144, Transformer predicted: 69180890246
[INFO] Current addr: 475638080, Transformer predicted: 58443471366
[INFO] Current addr: 475638016, Transformer predicted: 58443473286
[INFO] Current addr: 475638208, Transformer predicted: 69180892166
[INFO] Current addr: 475638272, Transformer predicted: 69180886406
[INFO] Current addr: 475637696, Transformer predicted: 69180898566
[INFO] Current addr: 475638912, Transformer predicted: 58443487366
[INFO] Current addr: 475639616, Transformer predicted: 69180902406
Finished CPU 0 instructions: 2000000 cycles: 2401696 cumulative IPC: 0.832745 (Simulation time: 0 hr 2 min 1 sec) 

ChampSim completed all CPUs

Region of Interest Statistics

CPU 0 cumulative IPC: 0.832745 instructions: 2000000 cycles: 2401696
cpu0_DTLB TOTAL     ACCESS:     450546  HIT:     449069  MISS:       1477
cpu0_DTLB LOAD      ACCESS:     309900  HIT:     308706  MISS:       1194
cpu0_DTLB RFO       ACCESS:     140646  HIT:     140363  MISS:        283
cpu0_DTLB PREFETCH  ACCESS:          0  HIT:          0  MISS:          0
cpu0_DTLB WRITEBACK ACCESS:          0  HIT:          0  MISS:          0
cpu0_DTLB TRANSLATION ACCESS:          0  HIT:          0  MISS:          0
cpu0_DTLB PREFETCH  REQUESTED:          0  ISSUED:          0  USEFUL:          0  USELESS:          0
cpu0_DTLB AVERAGE MISS LATENCY: 36.9296 cycles
cpu0_ITLB TOTAL     ACCESS:     231484  HIT:     231445  MISS:         39
cpu0_ITLB LOAD      ACCESS:     231484  HIT:     231445  MISS:         39
cpu0_ITLB RFO       ACCESS:          0  HIT:          0  MISS:          0
cpu0_ITLB PREFETCH  ACCESS:          0  HIT:          0  MISS:          0
cpu0_ITLB WRITEBACK ACCESS:          0  HIT:          0  MISS:          0
cpu0_ITLB TRANSLATION ACCESS:          0  HIT:          0  MISS:          0
cpu0_ITLB PREFETCH  REQUESTED:          0  ISSUED:          0  USEFUL:          0  USELESS:          0
cpu0_ITLB AVERAGE MISS LATENCY: 217 cycles
cpu0_L1I TOTAL     ACCESS:      49153  HIT:      48425  MISS:        728
cpu0_L1I LOAD      ACCESS:      49153  HIT:      48425  MISS:        728
cpu0_L1I RFO       ACCESS:          0  HIT:          0  MISS:          0
cpu0_L1I PREFETCH  ACCESS:          0  HIT:          0  MISS:          0
cpu0_L1I WRITEBACK ACCESS:          0  HIT:          0  MISS:          0
cpu0_L1I TRANSLATION ACCESS:          0  HIT:          0  MISS:          0
cpu0_L1I PREFETCH  REQUESTED:          0  ISSUED:          0  USEFUL:          0  USELESS:          0
cpu0_L1I AVERAGE MISS LATENCY: 80.7143 cycles
cpu0_STLB TOTAL     ACCESS:       1516  HIT:       1292  MISS:        224
cpu0_STLB LOAD      ACCESS:       1233  HIT:       1036  MISS:        197
cpu0_STLB RFO       ACCESS:        283  HIT:        256  MISS:         27
cpu0_STLB PREFETCH  ACCESS:          0  HIT:          0  MISS:          0
cpu0_STLB WRITEBACK ACCESS:          0  HIT:          0  MISS:          0
cpu0_STLB TRANSLATION ACCESS:          0  HIT:          0  MISS:          0
cpu0_STLB PREFETCH  REQUESTED:          0  ISSUED:          0  USEFUL:          0  USELESS:          0
cpu0_STLB AVERAGE MISS LATENCY: 219.955 cycles
cpu0_L1D TOTAL     ACCESS:     534819  HIT:     533593  MISS:       1226
cpu0_L1D LOAD      ACCESS:     308347  HIT:     307209  MISS:       1138
cpu0_L1D RFO       ACCESS:     226246  HIT:     226170  MISS:         76
cpu0_L1D PREFETCH  ACCESS:          0  HIT:          0  MISS:          0
cpu0_L1D WRITEBACK ACCESS:          0  HIT:          0  MISS:          0
cpu0_L1D TRANSLATION ACCESS:        226  HIT:        214  MISS:         12
cpu0_L1D PREFETCH  REQUESTED:          0  ISSUED:          0  USEFUL:          0  USELESS:          0
cpu0_L1D AVERAGE MISS LATENCY: 111.387 cycles
cpu0_L2C TOTAL     ACCESS:       2032  HIT:        418  MISS:       1614
cpu0_L2C LOAD      ACCESS:       1866  HIT:        334  MISS:       1532
cpu0_L2C RFO       ACCESS:         76  HIT:          4  MISS:         72
cpu0_L2C PREFETCH  ACCESS:          0  HIT:          0  MISS:          0
cpu0_L2C WRITEBACK ACCESS:         78  HIT:         78  MISS:          0
cpu0_L2C TRANSLATION ACCESS:         12  HIT:          2  MISS:         10
cpu0_L2C PREFETCH  REQUESTED:          0  ISSUED:          0  USEFUL:          0  USELESS:          0
cpu0_L2C AVERAGE MISS LATENCY: 107.68 cycles
LLC TOTAL     ACCESS:       2517  HIT:        600  MISS:       1917
LLC LOAD      ACCESS:       1532  HIT:        520  MISS:       1012
LLC RFO       ACCESS:         72  HIT:          1  MISS:         71
LLC PREFETCH  ACCESS:        903  HIT:         79  MISS:        824
LLC WRITEBACK ACCESS:          0  HIT:          0  MISS:          0
LLC TRANSLATION ACCESS:         10  HIT:          0  MISS:         10
LLC PREFETCH  REQUESTED:       1532  ISSUED:       1531  USEFUL:       1067  USELESS:          0
LLC AVERAGE MISS LATENCY: 121.883 cycles

DRAM Statistics
 CHANNEL 0
 RQ ROW_BUFFER_HIT:        243  ROW_BUFFER_MISS:       1674
 DBUS AVG_CONGESTED_CYCLE:    3.86189
 WQ ROW_BUFFER_HIT:          0  ROW_BUFFER_MISS:          0  FULL:          0


CPU 0 Branch Prediction Accuracy: 95.2206% MPKI: 9.5185 Average ROB Occupancy at Mispredict: 67.8833
Branch type MPKI
BRANCH_DIRECT_JUMP: 0.0375
BRANCH_INDIRECT: 2.9215
BRANCH_CONDITIONAL: 6.456
BRANCH_DIRECT_CALL: 0.0295
BRANCH_INDIRECT_CALL: 0.042
BRANCH_RETURN: 0.032

